Accel-Sim [build accelsim-commit-2260456ea5e6a1420f5734f145a4b7d8ab1d4737_modified_1.0]

        *** GPGPU-Sim Simulator Version 4.2.0  [build gpgpu-sim_git-commit-948c0e1a_modified_5.0] ***


GPGPU-Sim: Configuration options:

-save_embedded_ptx                      0 # saves ptx files embedded in binary as <n>.ptx
-keep                                   0 # keep intermediate files created by GPGPU-Sim when interfacing with external programs
-gpgpu_ptx_save_converted_ptxplus                    0 # Saved converted ptxplus to a file
-gpgpu_occupancy_sm_number                   70 # The SM number to pass to ptxas when getting register usage for computing GPU occupancy. This parameter is required in the config.
-ptx_opcode_latency_int      4,13,4,5,145,21 # Opcode latencies for integers <ADD,MAX,MUL,MAD,DIV,SHFL>Default 1,1,19,25,145,32
-ptx_opcode_latency_fp          4,13,4,5,39 # Opcode latencies for single precision floating points <ADD,MAX,MUL,MAD,DIV>Default 1,1,1,1,30
-ptx_opcode_latency_dp         8,19,8,8,330 # Opcode latencies for double precision floating points <ADD,MAX,MUL,MAD,DIV>Default 8,8,8,8,335
-ptx_opcode_latency_sfu                  100 # Opcode latencies for SFU instructionsDefault 8
-ptx_opcode_latency_tesnor                   64 # Opcode latencies for Tensor instructionsDefault 64
-ptx_opcode_initiation_int          2,2,2,2,8,4 # Opcode initiation intervals for integers <ADD,MAX,MUL,MAD,DIV,SHFL>Default 1,1,4,4,32,4
-ptx_opcode_initiation_fp            2,2,2,2,4 # Opcode initiation intervals for single precision floating points <ADD,MAX,MUL,MAD,DIV>Default 1,1,1,1,5
-ptx_opcode_initiation_dp          4,4,4,4,130 # Opcode initiation intervals for double precision floating points <ADD,MAX,MUL,MAD,DIV>Default 8,8,8,8,130
-ptx_opcode_initiation_sfu                    8 # Opcode initiation intervals for sfu instructionsDefault 8
-ptx_opcode_initiation_tensor                   64 # Opcode initiation intervals for tensor instructionsDefault 64
-cdp_latency         7200,8000,100,12000,1600 # CDP API latency <cudaStreamCreateWithFlags, cudaGetParameterBufferV2_init_perWarp, cudaGetParameterBufferV2_perKernel, cudaLaunchDeviceV2_init_perWarp, cudaLaunchDevicV2_perKernel>Default 7200,8000,100,12000,1600
-network_mode                           2 # Interconnection network mode
-inter_config_file                   mesh # Interconnection network config file
-icnt_in_buffer_limit                  512 # in_buffer_limit
-icnt_out_buffer_limit                  512 # out_buffer_limit
-icnt_subnets                           2 # subnets
-icnt_arbiter_algo                      1 # arbiter_algo
-icnt_verbose                           0 # inct_verbose
-icnt_grant_cycles                      1 # grant_cycles
-gpgpu_ptx_use_cuobjdump                    1 # Use cuobjdump to extract ptx and sass from binaries
-gpgpu_experimental_lib_support                    0 # Try to extract code from cuda libraries [Broken because of unknown cudaGetExportTable]
-checkpoint_option                      0 #  checkpointing flag (0 = no checkpoint)
-checkpoint_kernel                      1 #  checkpointing during execution of which kernel (1- 1st kernel)
-checkpoint_CTA                         0 #  checkpointing after # of CTA (< less than total CTA)
-resume_option                          0 #  resume flag (0 = no resume)
-resume_kernel                          0 #  Resume from which kernel (1= 1st kernel)
-resume_CTA                             0 #  resume from which CTA 
-checkpoint_CTA_t                       0 #  resume from which CTA 
-checkpoint_insn_Y                      0 #  resume from which CTA 
-gpgpu_ptx_convert_to_ptxplus                    0 # Convert SASS (native ISA) to ptxplus and run ptxplus
-gpgpu_ptx_force_max_capability                   70 # Force maximum compute capability
-gpgpu_ptx_inst_debug_to_file                    0 # Dump executed instructions' debug information to file
-gpgpu_ptx_inst_debug_file       inst_debug.txt # Executed instructions' debug output file
-gpgpu_ptx_inst_debug_thread_uid                    1 # Thread UID for executed instructions' debug output
-gpgpu_simd_model                       1 # 1 = post-dominator
-gpgpu_shader_core_pipeline              2048:32 # shader core pipeline config, i.e., {<nthread>:<warpsize>}
-gpgpu_tex_cache:l1  N:4:128:256,L:R:m:N:L,T:512:8,128:2 # per-shader L1 texture cache  (READ-ONLY) config  {<nsets>:<bsize>:<assoc>,<rep>:<wr>:<alloc>:<wr_alloc>,<mshr>:<N>:<merge>,<mq>:<rf>}
-gpgpu_const_cache:l1 N:128:64:8,L:R:f:N:L,S:2:64,4 # per-shader L1 constant memory cache  (READ-ONLY) config  {<nsets>:<bsize>:<assoc>,<rep>:<wr>:<alloc>:<wr_alloc>,<mshr>:<N>:<merge>,<mq>} 
-gpgpu_cache:il1     N:64:128:16,L:R:f:N:L,S:2:48,4 # shader L1 instruction cache config  {<nsets>:<bsize>:<assoc>,<rep>:<wr>:<alloc>:<wr_alloc>,<mshr>:<N>:<merge>,<mq>} 
-gpgpu_cache:dl1     S:4:128:64,L:T:m:L:L,A:512:8,16:0,32 # per-shader L1 data cache config  {<nsets>:<bsize>:<assoc>,<rep>:<wr>:<alloc>:<wr_alloc>,<mshr>:<N>:<merge>,<mq> | none}
-gpgpu_l1_cache_write_ratio                   25 # L1D write ratio
-gpgpu_l1_banks                         4 # The number of L1 cache banks
-gpgpu_l1_banks_byte_interleaving                   32 # l1 banks byte interleaving granularity
-gpgpu_l1_banks_hashing_function                    0 # l1 banks hashing function
-gpgpu_l1_latency                      20 # L1 Hit Latency
-gpgpu_smem_latency                    20 # smem Latency
-gpgpu_cache:dl1PrefL1                 none # per-shader L1 data cache config  {<nsets>:<bsize>:<assoc>,<rep>:<wr>:<alloc>:<wr_alloc>,<mshr>:<N>:<merge>,<mq> | none}
-gpgpu_cache:dl1PrefShared                 none # per-shader L1 data cache config  {<nsets>:<bsize>:<assoc>,<rep>:<wr>:<alloc>:<wr_alloc>,<mshr>:<N>:<merge>,<mq> | none}
-gpgpu_gmem_skip_L1D                    0 # global memory access skip L1D cache (implements -Xptxas -dlcm=cg, default=no skip)
-gpgpu_perfect_mem                      0 # enable perfect memory mode (no cache miss)
-n_regfile_gating_group                    4 # group of lanes that should be read/written together)
-gpgpu_clock_gated_reg_file                    0 # enable clock gated reg file for power calculations
-gpgpu_clock_gated_lanes                    1 # enable clock gated lanes for power calculations
-gpgpu_shader_registers                65536 # Number of registers per shader core. Limits number of concurrent CTAs. (default 8192)
-gpgpu_registers_per_block                65536 # Maximum number of registers per CTA. (default 8192)
-gpgpu_ignore_resources_limitation                    0 # gpgpu_ignore_resources_limitation (default 0)
-gpgpu_shader_cta                      32 # Maximum number of concurrent CTAs in shader (default 32)
-gpgpu_num_cta_barriers                   16 # Maximum number of named barriers per CTA (default 16)
-gpgpu_n_clusters                      80 # number of processing clusters
-gpgpu_n_cores_per_cluster                    1 # number of simd cores per cluster
-gpgpu_n_cluster_ejection_buffer_size                   32 # number of packets in ejection buffer
-gpgpu_n_ldst_response_buffer_size                    2 # number of response packets in ld/st unit ejection buffer
-gpgpu_shmem_per_block                65536 # Size of shared memory per thread block or CTA (default 48kB)
-gpgpu_shmem_size                   98304 # Size of shared memory per shader core (default 16kB)
-gpgpu_shmem_option       0,8,16,32,64,96 # Option list of shared memory sizes
-gpgpu_unified_l1d_size                  128 # Size of unified data cache(L1D + shared memory) in KB
-gpgpu_adaptive_cache_config                    1 # adaptive_cache_config
-gpgpu_shmem_sizeDefault                98304 # Size of shared memory per shader core (default 16kB)
-gpgpu_shmem_size_PrefL1                16384 # Size of shared memory per shader core (default 16kB)
-gpgpu_shmem_size_PrefShared                16384 # Size of shared memory per shader core (default 16kB)
-gpgpu_shmem_num_banks                   32 # Number of banks in the shared memory in each shader core (default 16)
-gpgpu_shmem_limited_broadcast                    0 # Limit shared memory to do one broadcast per cycle (default on)
-gpgpu_shmem_warp_parts                    1 # Number of portions a warp is divided into for shared memory bank conflict check 
-gpgpu_mem_unit_ports                    1 # The number of memory transactions allowed per core cycle
-gpgpu_shmem_warp_parts                    1 # Number of portions a warp is divided into for shared memory bank conflict check 
-gpgpu_warpdistro_shader                   -1 # Specify which shader core to collect the warp size distribution from
-gpgpu_warp_issue_shader                    0 # Specify which shader core to collect the warp issue distribution from
-gpgpu_local_mem_map                    1 # Mapping from local memory space address to simulated GPU physical address space (default = enabled)
-gpgpu_num_reg_banks                   16 # Number of register banks (default = 8)
-gpgpu_reg_bank_use_warp_id                    0 # Use warp ID in mapping registers to banks (default = off)
-gpgpu_sub_core_model                    1 # Sub Core Volta/Pascal model (default = off)
-gpgpu_enable_specialized_operand_collector                    0 # enable_specialized_operand_collector
-gpgpu_operand_collector_num_units_sp                    4 # number of collector units (default = 4)
-gpgpu_operand_collector_num_units_dp                    0 # number of collector units (default = 0)
-gpgpu_operand_collector_num_units_sfu                    4 # number of collector units (default = 4)
-gpgpu_operand_collector_num_units_int                    0 # number of collector units (default = 0)
-gpgpu_operand_collector_num_units_tensor_core                    4 # number of collector units (default = 4)
-gpgpu_operand_collector_num_units_mem                    2 # number of collector units (default = 2)
-gpgpu_operand_collector_num_units_gen                    8 # number of collector units (default = 0)
-gpgpu_operand_collector_num_in_ports_sp                    1 # number of collector unit in ports (default = 1)
-gpgpu_operand_collector_num_in_ports_dp                    0 # number of collector unit in ports (default = 0)
-gpgpu_operand_collector_num_in_ports_sfu                    1 # number of collector unit in ports (default = 1)
-gpgpu_operand_collector_num_in_ports_int                    0 # number of collector unit in ports (default = 0)
-gpgpu_operand_collector_num_in_ports_tensor_core                    1 # number of collector unit in ports (default = 1)
-gpgpu_operand_collector_num_in_ports_mem                    1 # number of collector unit in ports (default = 1)
-gpgpu_operand_collector_num_in_ports_gen                    8 # number of collector unit in ports (default = 0)
-gpgpu_operand_collector_num_out_ports_sp                    1 # number of collector unit in ports (default = 1)
-gpgpu_operand_collector_num_out_ports_dp                    0 # number of collector unit in ports (default = 0)
-gpgpu_operand_collector_num_out_ports_sfu                    1 # number of collector unit in ports (default = 1)
-gpgpu_operand_collector_num_out_ports_int                    0 # number of collector unit in ports (default = 0)
-gpgpu_operand_collector_num_out_ports_tensor_core                    1 # number of collector unit in ports (default = 1)
-gpgpu_operand_collector_num_out_ports_mem                    1 # number of collector unit in ports (default = 1)
-gpgpu_operand_collector_num_out_ports_gen                    8 # number of collector unit in ports (default = 0)
-gpgpu_coalesce_arch                   70 # Coalescing arch (GT200 = 13, Fermi = 20)
-gpgpu_num_sched_per_core                    4 # Number of warp schedulers per core
-gpgpu_max_insn_issue_per_warp                    1 # Max number of instructions that can be issued per warp in one cycle by scheduler (either 1 or 2)
-gpgpu_dual_issue_diff_exec_units                    1 # should dual issue use two different execution unit resources (Default = 1)
-gpgpu_simt_core_sim_order                    1 # Select the simulation order of cores in a cluster (0=Fix, 1=Round-Robin)
-gpgpu_pipeline_widths 4,4,4,4,4,4,4,4,4,4,8,4,4 # Pipeline widths ID_OC_SP,ID_OC_DP,ID_OC_INT,ID_OC_SFU,ID_OC_MEM,OC_EX_SP,OC_EX_DP,OC_EX_INT,OC_EX_SFU,OC_EX_MEM,EX_WB,ID_OC_TENSOR_CORE,OC_EX_TENSOR_CORE
-gpgpu_tensor_core_avail                    1 # Tensor Core Available (default=0)
-gpgpu_num_sp_units                     4 # Number of SP units (default=1)
-gpgpu_num_dp_units                     4 # Number of DP units (default=0)
-gpgpu_num_int_units                    4 # Number of INT units (default=0)
-gpgpu_num_sfu_units                    4 # Number of SF units (default=1)
-gpgpu_num_tensor_core_units                    4 # Number of tensor_core units (default=1)
-gpgpu_num_mem_units                    1 # Number if ldst units (default=1) WARNING: not hooked up to anything
-gpgpu_scheduler                      lrr # Scheduler configuration: < lrr | gto | two_level_active > If two_level_active:<num_active_warps>:<inner_prioritization>:<outer_prioritization>For complete list of prioritization values see shader.h enum scheduler_prioritization_typeDefault: gto
-gpgpu_concurrent_kernel_sm                    0 # Support concurrent kernels on a SM (default = disabled)
-gpgpu_perfect_inst_const_cache                    1 # perfect inst and const cache mode, so all inst and const hits in the cache(default = disabled)
-gpgpu_inst_fetch_throughput                    4 # the number of fetched intruction per warp each cycle
-gpgpu_reg_file_port_throughput                    2 # the number ports of the register file
-specialized_unit_1         1,4,4,4,4,BRA # specialized unit config {<enabled>,<num_units>:<latency>:<initiation>,<ID_OC_SPEC>:<OC_EX_SPEC>,<NAME>}
-specialized_unit_2       1,4,200,4,4,TEX # specialized unit config {<enabled>,<num_units>:<latency>:<initiation>,<ID_OC_SPEC>:<OC_EX_SPEC>,<NAME>}
-specialized_unit_3      1,4,8,4,4,TENSOR # specialized unit config {<enabled>,<num_units>:<latency>:<initiation>,<ID_OC_SPEC>:<OC_EX_SPEC>,<NAME>}
-specialized_unit_4         0,4,4,4,4,BRA # specialized unit config {<enabled>,<num_units>:<latency>:<initiation>,<ID_OC_SPEC>:<OC_EX_SPEC>,<NAME>}
-specialized_unit_5         0,4,4,4,4,BRA # specialized unit config {<enabled>,<num_units>:<latency>:<initiation>,<ID_OC_SPEC>:<OC_EX_SPEC>,<NAME>}
-specialized_unit_6         0,4,4,4,4,BRA # specialized unit config {<enabled>,<num_units>:<latency>:<initiation>,<ID_OC_SPEC>:<OC_EX_SPEC>,<NAME>}
-specialized_unit_7         0,4,4,4,4,BRA # specialized unit config {<enabled>,<num_units>:<latency>:<initiation>,<ID_OC_SPEC>:<OC_EX_SPEC>,<NAME>}
-specialized_unit_8         0,4,4,4,4,BRA # specialized unit config {<enabled>,<num_units>:<latency>:<initiation>,<ID_OC_SPEC>:<OC_EX_SPEC>,<NAME>}
-gpgpu_perf_sim_memcpy                    1 # Fill the L2 cache on memcpy
-gpgpu_simple_dram_model                    0 # simple_dram_model with fixed latency and BW
-gpgpu_dram_scheduler                    1 # 0 = fifo, 1 = FR-FCFS (defaul)
-gpgpu_dram_partition_queues          64:64:64:64 # i2$:$2d:d2$:$2i
-l2_ideal                               0 # Use a ideal L2 cache that always hit
-gpgpu_cache:dl2     S:32:128:24,L:B:m:L:P,A:192:4,32:0,32 # unified banked L2 data cache config  {<nsets>:<bsize>:<assoc>,<rep>:<wr>:<alloc>:<wr_alloc>,<mshr>:<N>:<merge>,<mq>}
-gpgpu_cache:dl2_texture_only                    0 # L2 cache used for texture only
-gpgpu_n_mem                           32 # number of memory modules (e.g. memory controllers) in gpu
-gpgpu_n_sub_partition_per_mchannel                    2 # number of memory subpartition in each memory module
-gpgpu_n_mem_per_ctrlr                    1 # number of memory chips per memory controller
-gpgpu_memlatency_stat                   14 # track and display latency statistics 0x2 enables MC, 0x4 enables queue logs
-gpgpu_frfcfs_dram_sched_queue_size                   64 # 0 = unlimited (default); # entries per chip
-gpgpu_dram_return_queue_size                  192 # 0 = unlimited (default); # entries per chip
-gpgpu_dram_buswidth                   16 # default = 4 bytes (8 bytes per cycle at DDR)
-gpgpu_dram_burst_length                    2 # Burst length of each DRAM request (default = 4 data bus cycle)
-dram_data_command_freq_ratio                    2 # Frequency ratio between DRAM data bus and command bus (default = 2 times, i.e. DDR)
-gpgpu_dram_timing_opt nbk=16:CCD=1:RRD=3:RCD=12:RAS=28:RP=12:RC=40: CL=12:WL=2:CDLR=3:WR=10:nbkgrp=4:CCDL=2:RTPL=3 # DRAM timing parameters = {nbk:tCCD:tRRD:tRCD:tRAS:tRP:tRC:CL:WL:tCDLR:tWR:nbkgrp:tCCDL:tRTPL}
-gpgpu_l2_rop_latency                  160 # ROP queue latency (default 85)
-dram_latency                         100 # DRAM latency (default 30)
-dram_dual_bus_interface                    1 # dual_bus_interface (default = 0) 
-dram_bnk_indexing_policy                    0 # dram_bnk_indexing_policy (0 = normal indexing, 1 = Xoring with the higher bits) (Default = 0)
-dram_bnkgrp_indexing_policy                    1 # dram_bnkgrp_indexing_policy (0 = take higher bits, 1 = take lower bits) (Default = 0)
-dram_seperate_write_queue_enable                    0 # Seperate_Write_Queue_Enable
-dram_write_queue_size             32:28:16 # Write_Queue_Size
-dram_elimnate_rw_turnaround                    0 # elimnate_rw_turnaround i.e set tWTR and tRTW = 0
-icnt_flit_size                        40 # icnt_flit_size
-gpgpu_mem_addr_mapping dramid@8;00000000.00000000.00000000.00000000.0000RRRR.RRRRRRRR.RBBBCCCB.CCCSSSSS # mapping memory address to dram model {dramid@<start bit>;<memory address map>}
-gpgpu_mem_addr_test                    0 # run sweep test to check address mapping for aliased address
-gpgpu_mem_address_mask                    1 # 0 = old addressing mask, 1 = new addressing mask, 2 = new add. mask + flipped bank sel and chip sel bits
-gpgpu_memory_partition_indexing                    2 # 0 = no indexing, 1 = bitwise xoring, 2 = IPoly, 3 = custom indexing
-accelwattch_xml_file accelwattch_sass_sim.xml # AccelWattch XML file
-power_simulation_enabled                    0 # Turn on power simulator (1=On, 0=Off)
-power_per_cycle_dump                    0 # Dump detailed power output each cycle
-hw_perf_file_name            hw_perf.csv # Hardware Performance Statistics file
-hw_perf_bench_name                       # Kernel Name in Hardware Performance Statistics file
-power_simulation_mode                    0 # Switch performance counter input for power simulation (0=Sim, 1=HW, 2=HW-Sim Hybrid)
-dvfs_enabled                           0 # Turn on DVFS for power model
-aggregate_power_stats                    0 # Accumulate power across all kernels
-accelwattch_hybrid_perfsim_L1_RH                    0 # Get L1 Read Hits for Accelwattch-Hybrid from Accel-Sim
-accelwattch_hybrid_perfsim_L1_RM                    0 # Get L1 Read Misses for Accelwattch-Hybrid from Accel-Sim
-accelwattch_hybrid_perfsim_L1_WH                    0 # Get L1 Write Hits for Accelwattch-Hybrid from Accel-Sim
-accelwattch_hybrid_perfsim_L1_WM                    0 # Get L1 Write Misses for Accelwattch-Hybrid from Accel-Sim
-accelwattch_hybrid_perfsim_L2_RH                    0 # Get L2 Read Hits for Accelwattch-Hybrid from Accel-Sim
-accelwattch_hybrid_perfsim_L2_RM                    0 # Get L2 Read Misses for Accelwattch-Hybrid from Accel-Sim
-accelwattch_hybrid_perfsim_L2_WH                    0 # Get L2 Write Hits for Accelwattch-Hybrid from Accel-Sim
-accelwattch_hybrid_perfsim_L2_WM                    0 # Get L2 Write Misses for Accelwattch-Hybrid from Accel-Sim
-accelwattch_hybrid_perfsim_CC_ACC                    0 # Get Constant Cache Acesses for Accelwattch-Hybrid from Accel-Sim
-accelwattch_hybrid_perfsim_SHARED_ACC                    0 # Get Shared Memory Acesses for Accelwattch-Hybrid from Accel-Sim
-accelwattch_hybrid_perfsim_DRAM_RD                    0 # Get DRAM Reads for Accelwattch-Hybrid from Accel-Sim
-accelwattch_hybrid_perfsim_DRAM_WR                    0 # Get DRAM Writes for Accelwattch-Hybrid from Accel-Sim
-accelwattch_hybrid_perfsim_NOC                    0 # Get Interconnect Acesses for Accelwattch-Hybrid from Accel-Sim
-accelwattch_hybrid_perfsim_PIPE_DUTY                    0 # Get Pipeline Duty Cycle Acesses for Accelwattch-Hybrid from Accel-Sim
-accelwattch_hybrid_perfsim_NUM_SM_IDLE                    0 # Get Number of Idle SMs for Accelwattch-Hybrid from Accel-Sim
-accelwattch_hybrid_perfsim_CYCLES                    0 # Get Executed Cycles for Accelwattch-Hybrid from Accel-Sim
-accelwattch_hybrid_perfsim_VOLTAGE                    0 # Get Chip Voltage for Accelwattch-Hybrid from Accel-Sim
-power_trace_enabled                    0 # produce a file for the power trace (1=On, 0=Off)
-power_trace_zlevel                     6 # Compression level of the power trace output log (0=no comp, 9=highest)
-steady_power_levels_enabled                    0 # produce a file for the steady power levels (1=On, 0=Off)
-steady_state_definition                  8:4 # allowed deviation:number of samples
-gpgpu_max_cycle                        0 # terminates gpu simulation early (0 = no limit)
-gpgpu_max_insn                         0 # terminates gpu simulation early (0 = no limit)
-gpgpu_max_cta                          0 # terminates gpu simulation early (0 = no limit)
-gpgpu_max_completed_cta                    0 # terminates gpu simulation early (0 = no limit)
-gpgpu_runtime_stat                   500 # display runtime statistics such as dram utilization {<freq>:<flag>}
-liveness_message_freq                    1 # Minimum number of seconds between simulation liveness messages (0 = always print)
-gpgpu_compute_capability_major                    7 # Major compute capability version number
-gpgpu_compute_capability_minor                    0 # Minor compute capability version number
-gpgpu_flush_l1_cache                    1 # Flush L1 cache at the end of each kernel call
-gpgpu_flush_l2_cache                    0 # Flush L2 cache at the end of each kernel call
-gpgpu_deadlock_detect                    1 # Stop the simulation at deadlock (1=on (default), 0=off)
-gpgpu_ptx_instruction_classification                    0 # if enabled will classify ptx instruction types per kernel (Max 255 kernels now)
-gpgpu_ptx_sim_mode                     0 # Select between Performance (default) or Functional simulation (1)
-gpgpu_clock_domains 1447.0:1447.0:1447.0:850.0 # Clock Domain Frequencies in MhZ {<Core Clock>:<ICNT Clock>:<L2 Clock>:<DRAM Clock>}
-gpgpu_max_concurrent_kernel                  128 # maximum kernels that can run concurrently on GPU, set this value according to max resident grids for your compute capability
-gpgpu_cflog_interval                    0 # Interval between each snapshot in control flow logger
-visualizer_enabled                     0 # Turn on visualizer output (1=On, 0=Off)
-visualizer_outputfile                 NULL # Specifies the output log file for visualizer
-visualizer_zlevel                      6 # Compression level of the visualizer output log (0=no comp, 9=highest)
-gpgpu_stack_size_limit                 1024 # GPU thread stack size
-gpgpu_heap_size_limit              8388608 # GPU malloc heap size 
-gpgpu_runtime_sync_depth_limit                    2 # GPU device runtime synchronize depth
-gpgpu_runtime_pending_launch_count_limit                 2048 # GPU device runtime pending launch count
-trace_enabled                          0 # Turn on traces
-trace_components                    none # comma seperated list of traces to enable. Complete list found in trace_streams.tup. Default none
-trace_sampling_core                    0 # The core which is printed using CORE_DPRINTF. Default 0
-trace_sampling_memory_partition                   -1 # The memory partition which is printed using MEMPART_DPRINTF. Default -1 (i.e. all)
-enable_ptx_file_line_stats                    1 # Turn on PTX source line statistic profiling. (1 = On)
-ptx_line_stats_filename gpgpu_inst_stats.txt # Output file for PTX source line statistics.
-gpgpu_kernel_launch_latency                 5000 # Kernel launch latency in cycles. Default: 0
-gpgpu_cdp_enabled                      0 # Turn on CDP
-gpgpu_TB_launch_latency                    0 # thread block launch latency in cycles. Default: 0
-trace               ./hw_run/ubench/11.0/mem_lat/NO_ARGS/traces/kernelslist.g # traces kernel filetraces kernel file directory
-trace_opcode_latency_initiation_int                  2,2 # Opcode latencies and initiation for integers in trace driven mode <latency,initiation>
-trace_opcode_latency_initiation_sp                  2,2 # Opcode latencies and initiation for sp in trace driven mode <latency,initiation>
-trace_opcode_latency_initiation_dp                  8,4 # Opcode latencies and initiation for dp in trace driven mode <latency,initiation>
-trace_opcode_latency_initiation_sfu                 20,8 # Opcode latencies and initiation for sfu in trace driven mode <latency,initiation>
-trace_opcode_latency_initiation_tensor                  2,2 # Opcode latencies and initiation for tensor in trace driven mode <latency,initiation>
-trace_opcode_latency_initiation_spec_op_1                  4,4 # specialized unit config <latency,initiation>
-trace_opcode_latency_initiation_spec_op_2                200,4 # specialized unit config <latency,initiation>
-trace_opcode_latency_initiation_spec_op_3                  2,2 # specialized unit config <latency,initiation>
-trace_opcode_latency_initiation_spec_op_4                  4,4 # specialized unit config <latency,initiation>
-trace_opcode_latency_initiation_spec_op_5                  4,4 # specialized unit config <latency,initiation>
-trace_opcode_latency_initiation_spec_op_6                  4,4 # specialized unit config <latency,initiation>
-trace_opcode_latency_initiation_spec_op_7                  4,4 # specialized unit config <latency,initiation>
-trace_opcode_latency_initiation_spec_op_8                  4,4 # specialized unit config <latency,initiation>
DRAM Timing Options:
nbk                                    16 # number of banks
CCD                                     1 # column to column delay
RRD                                     3 # minimal delay between activation of rows in different banks
RCD                                    12 # row to column delay
RAS                                    28 # time needed to activate row
RP                                     12 # time needed to precharge (deactivate) row
RC                                     40 # row cycle time
CDLR                                    3 # switching from write to read (changes tWTR)
WR                                     10 # last data-in to row precharge
CL                                     12 # CAS latency
WL                                      2 # Write latency
nbkgrp                                  4 # number of bank groups
CCDL                                    2 # column to column delay between accesses to different bank groups
RTPL                                    3 # read to precharge delay between accesses to different bank groups
Total number of memory sub partition = 64
addr_dec_mask[CHIP]  = 0000000000001f00 	high:13 low:8
addr_dec_mask[BK]    = 00000000000e2000 	high:20 low:13
addr_dec_mask[ROW]   = 00000001fff00000 	high:33 low:20
addr_dec_mask[COL]   = 000000000001c0ff 	high:17 low:0
addr_dec_mask[BURST] = 000000000000001f 	high:5 low:0
sub_partition_id_mask = 0000000000002000
GPGPU-Sim uArch: clock freqs: 1447000000.000000:1447000000.000000:1447000000.000000:850000000.000000
GPGPU-Sim uArch: clock periods: 0.00000000069108500346:0.00000000069108500346:0.00000000069108500346:0.00000000117647058824
*** Initializing Memory Statistics ***
GPGPU-Sim uArch: performance model initialization complete.
Processing kernel ./hw_run/ubench/11.0/mem_lat/NO_ARGS/traces/kernel-1.traceg
-kernel name = _Z7mem_latPjS_PmS0_
-kernel id = 1
-grid dim = (160,1,1)
-block dim = (1024,1,1)
-shmem = 0
-nregs = 22
-binary version = 70
-cuda stream id = 0
-shmem base_addr = 0x00007fe544000000
-local mem base_addr = 0x00007fe546000000
-nvbit version = 1.4
-accelsim tracer version = 3
Header info loaded for kernel command : ./hw_run/ubench/11.0/mem_lat/NO_ARGS/traces/kernel-1.traceg
launching kernel name: _Z7mem_latPjS_PmS0_ uid: 1
GPGPU-Sim uArch: Shader 0 bind to kernel 1 '_Z7mem_latPjS_PmS0_'
GPGPU-Sim uArch: CTA/core = 2, limited by: threads regs
GPGPU-Sim: Reconfigure L1 cache to 128KB
thread block = 0,0,0
GPGPU-Sim uArch: Shader 1 bind to kernel 1 '_Z7mem_latPjS_PmS0_'
thread block = 1,0,0
GPGPU-Sim uArch: Shader 2 bind to kernel 1 '_Z7mem_latPjS_PmS0_'
thread block = 2,0,0
GPGPU-Sim uArch: Shader 3 bind to kernel 1 '_Z7mem_latPjS_PmS0_'
thread block = 3,0,0
GPGPU-Sim uArch: Shader 4 bind to kernel 1 '_Z7mem_latPjS_PmS0_'
thread block = 4,0,0
GPGPU-Sim uArch: Shader 5 bind to kernel 1 '_Z7mem_latPjS_PmS0_'
thread block = 5,0,0
GPGPU-Sim uArch: Shader 6 bind to kernel 1 '_Z7mem_latPjS_PmS0_'
thread block = 6,0,0
GPGPU-Sim uArch: Shader 7 bind to kernel 1 '_Z7mem_latPjS_PmS0_'
thread block = 7,0,0
GPGPU-Sim uArch: Shader 8 bind to kernel 1 '_Z7mem_latPjS_PmS0_'
thread block = 8,0,0
GPGPU-Sim uArch: Shader 9 bind to kernel 1 '_Z7mem_latPjS_PmS0_'
thread block = 9,0,0
GPGPU-Sim uArch: Shader 10 bind to kernel 1 '_Z7mem_latPjS_PmS0_'
thread block = 10,0,0
GPGPU-Sim uArch: Shader 11 bind to kernel 1 '_Z7mem_latPjS_PmS0_'
thread block = 11,0,0
GPGPU-Sim uArch: Shader 12 bind to kernel 1 '_Z7mem_latPjS_PmS0_'
thread block = 12,0,0
GPGPU-Sim uArch: Shader 13 bind to kernel 1 '_Z7mem_latPjS_PmS0_'
thread block = 13,0,0
GPGPU-Sim uArch: Shader 14 bind to kernel 1 '_Z7mem_latPjS_PmS0_'
thread block = 14,0,0
GPGPU-Sim uArch: Shader 15 bind to kernel 1 '_Z7mem_latPjS_PmS0_'
thread block = 15,0,0
GPGPU-Sim uArch: Shader 16 bind to kernel 1 '_Z7mem_latPjS_PmS0_'
thread block = 16,0,0
GPGPU-Sim uArch: Shader 17 bind to kernel 1 '_Z7mem_latPjS_PmS0_'
thread block = 17,0,0
GPGPU-Sim uArch: Shader 18 bind to kernel 1 '_Z7mem_latPjS_PmS0_'
thread block = 18,0,0
GPGPU-Sim uArch: Shader 19 bind to kernel 1 '_Z7mem_latPjS_PmS0_'
thread block = 19,0,0
GPGPU-Sim uArch: Shader 20 bind to kernel 1 '_Z7mem_latPjS_PmS0_'
thread block = 20,0,0
GPGPU-Sim uArch: Shader 21 bind to kernel 1 '_Z7mem_latPjS_PmS0_'
thread block = 21,0,0
GPGPU-Sim uArch: Shader 22 bind to kernel 1 '_Z7mem_latPjS_PmS0_'
thread block = 22,0,0
GPGPU-Sim uArch: Shader 23 bind to kernel 1 '_Z7mem_latPjS_PmS0_'
thread block = 23,0,0
GPGPU-Sim uArch: Shader 24 bind to kernel 1 '_Z7mem_latPjS_PmS0_'
thread block = 24,0,0
GPGPU-Sim uArch: Shader 25 bind to kernel 1 '_Z7mem_latPjS_PmS0_'
thread block = 25,0,0
GPGPU-Sim uArch: Shader 26 bind to kernel 1 '_Z7mem_latPjS_PmS0_'
thread block = 26,0,0
GPGPU-Sim uArch: Shader 27 bind to kernel 1 '_Z7mem_latPjS_PmS0_'
thread block = 27,0,0
GPGPU-Sim uArch: Shader 28 bind to kernel 1 '_Z7mem_latPjS_PmS0_'
thread block = 28,0,0
GPGPU-Sim uArch: Shader 29 bind to kernel 1 '_Z7mem_latPjS_PmS0_'
thread block = 29,0,0
GPGPU-Sim uArch: Shader 30 bind to kernel 1 '_Z7mem_latPjS_PmS0_'
thread block = 30,0,0
GPGPU-Sim uArch: Shader 31 bind to kernel 1 '_Z7mem_latPjS_PmS0_'
thread block = 31,0,0
GPGPU-Sim uArch: Shader 32 bind to kernel 1 '_Z7mem_latPjS_PmS0_'
thread block = 32,0,0
GPGPU-Sim uArch: Shader 33 bind to kernel 1 '_Z7mem_latPjS_PmS0_'
thread block = 33,0,0
GPGPU-Sim uArch: Shader 34 bind to kernel 1 '_Z7mem_latPjS_PmS0_'
thread block = 34,0,0
GPGPU-Sim uArch: Shader 35 bind to kernel 1 '_Z7mem_latPjS_PmS0_'
thread block = 35,0,0
GPGPU-Sim uArch: Shader 36 bind to kernel 1 '_Z7mem_latPjS_PmS0_'
thread block = 36,0,0
GPGPU-Sim uArch: Shader 37 bind to kernel 1 '_Z7mem_latPjS_PmS0_'
thread block = 37,0,0
GPGPU-Sim uArch: Shader 38 bind to kernel 1 '_Z7mem_latPjS_PmS0_'
thread block = 38,0,0
GPGPU-Sim uArch: Shader 39 bind to kernel 1 '_Z7mem_latPjS_PmS0_'
thread block = 39,0,0
GPGPU-Sim uArch: Shader 40 bind to kernel 1 '_Z7mem_latPjS_PmS0_'
thread block = 40,0,0
GPGPU-Sim uArch: Shader 41 bind to kernel 1 '_Z7mem_latPjS_PmS0_'
thread block = 41,0,0
GPGPU-Sim uArch: Shader 42 bind to kernel 1 '_Z7mem_latPjS_PmS0_'
thread block = 42,0,0
GPGPU-Sim uArch: Shader 43 bind to kernel 1 '_Z7mem_latPjS_PmS0_'
thread block = 43,0,0
GPGPU-Sim uArch: Shader 44 bind to kernel 1 '_Z7mem_latPjS_PmS0_'
thread block = 44,0,0
GPGPU-Sim uArch: Shader 45 bind to kernel 1 '_Z7mem_latPjS_PmS0_'
thread block = 45,0,0
GPGPU-Sim uArch: Shader 46 bind to kernel 1 '_Z7mem_latPjS_PmS0_'
thread block = 46,0,0
GPGPU-Sim uArch: Shader 47 bind to kernel 1 '_Z7mem_latPjS_PmS0_'
thread block = 47,0,0
GPGPU-Sim uArch: Shader 48 bind to kernel 1 '_Z7mem_latPjS_PmS0_'
thread block = 48,0,0
GPGPU-Sim uArch: Shader 49 bind to kernel 1 '_Z7mem_latPjS_PmS0_'
thread block = 49,0,0
GPGPU-Sim uArch: Shader 50 bind to kernel 1 '_Z7mem_latPjS_PmS0_'
thread block = 50,0,0
GPGPU-Sim uArch: Shader 51 bind to kernel 1 '_Z7mem_latPjS_PmS0_'
thread block = 51,0,0
GPGPU-Sim uArch: Shader 52 bind to kernel 1 '_Z7mem_latPjS_PmS0_'
thread block = 52,0,0
GPGPU-Sim uArch: Shader 53 bind to kernel 1 '_Z7mem_latPjS_PmS0_'
thread block = 53,0,0
GPGPU-Sim uArch: Shader 54 bind to kernel 1 '_Z7mem_latPjS_PmS0_'
thread block = 54,0,0
GPGPU-Sim uArch: Shader 55 bind to kernel 1 '_Z7mem_latPjS_PmS0_'
thread block = 55,0,0
GPGPU-Sim uArch: Shader 56 bind to kernel 1 '_Z7mem_latPjS_PmS0_'
thread block = 56,0,0
GPGPU-Sim uArch: Shader 57 bind to kernel 1 '_Z7mem_latPjS_PmS0_'
thread block = 57,0,0
GPGPU-Sim uArch: Shader 58 bind to kernel 1 '_Z7mem_latPjS_PmS0_'
thread block = 58,0,0
GPGPU-Sim uArch: Shader 59 bind to kernel 1 '_Z7mem_latPjS_PmS0_'
thread block = 59,0,0
GPGPU-Sim uArch: Shader 60 bind to kernel 1 '_Z7mem_latPjS_PmS0_'
thread block = 60,0,0
GPGPU-Sim uArch: Shader 61 bind to kernel 1 '_Z7mem_latPjS_PmS0_'
thread block = 61,0,0
GPGPU-Sim uArch: Shader 62 bind to kernel 1 '_Z7mem_latPjS_PmS0_'
thread block = 62,0,0
GPGPU-Sim uArch: Shader 63 bind to kernel 1 '_Z7mem_latPjS_PmS0_'
thread block = 63,0,0
GPGPU-Sim uArch: Shader 64 bind to kernel 1 '_Z7mem_latPjS_PmS0_'
thread block = 64,0,0
GPGPU-Sim uArch: Shader 65 bind to kernel 1 '_Z7mem_latPjS_PmS0_'
thread block = 65,0,0
GPGPU-Sim uArch: Shader 66 bind to kernel 1 '_Z7mem_latPjS_PmS0_'
thread block = 66,0,0
GPGPU-Sim uArch: Shader 67 bind to kernel 1 '_Z7mem_latPjS_PmS0_'
thread block = 67,0,0
GPGPU-Sim uArch: Shader 68 bind to kernel 1 '_Z7mem_latPjS_PmS0_'
thread block = 68,0,0
GPGPU-Sim uArch: Shader 69 bind to kernel 1 '_Z7mem_latPjS_PmS0_'
thread block = 69,0,0
GPGPU-Sim uArch: Shader 70 bind to kernel 1 '_Z7mem_latPjS_PmS0_'
thread block = 70,0,0
GPGPU-Sim uArch: Shader 71 bind to kernel 1 '_Z7mem_latPjS_PmS0_'
thread block = 71,0,0
GPGPU-Sim uArch: Shader 72 bind to kernel 1 '_Z7mem_latPjS_PmS0_'
thread block = 72,0,0
GPGPU-Sim uArch: Shader 73 bind to kernel 1 '_Z7mem_latPjS_PmS0_'
thread block = 73,0,0
GPGPU-Sim uArch: Shader 74 bind to kernel 1 '_Z7mem_latPjS_PmS0_'
thread block = 74,0,0
GPGPU-Sim uArch: Shader 75 bind to kernel 1 '_Z7mem_latPjS_PmS0_'
thread block = 75,0,0
GPGPU-Sim uArch: Shader 76 bind to kernel 1 '_Z7mem_latPjS_PmS0_'
thread block = 76,0,0
GPGPU-Sim uArch: Shader 77 bind to kernel 1 '_Z7mem_latPjS_PmS0_'
thread block = 77,0,0
GPGPU-Sim uArch: Shader 78 bind to kernel 1 '_Z7mem_latPjS_PmS0_'
thread block = 78,0,0
GPGPU-Sim uArch: Shader 79 bind to kernel 1 '_Z7mem_latPjS_PmS0_'
thread block = 79,0,0
thread block = 80,0,0
thread block = 81,0,0
thread block = 82,0,0
thread block = 83,0,0
thread block = 84,0,0
thread block = 85,0,0
thread block = 86,0,0
thread block = 87,0,0
thread block = 88,0,0
thread block = 89,0,0
thread block = 90,0,0
thread block = 91,0,0
thread block = 92,0,0
thread block = 93,0,0
thread block = 94,0,0
thread block = 95,0,0
thread block = 96,0,0
thread block = 97,0,0
thread block = 98,0,0
thread block = 99,0,0
thread block = 100,0,0
thread block = 101,0,0
thread block = 102,0,0
thread block = 103,0,0
thread block = 104,0,0
thread block = 105,0,0
thread block = 106,0,0
thread block = 107,0,0
thread block = 108,0,0
thread block = 109,0,0
thread block = 110,0,0
thread block = 111,0,0
thread block = 112,0,0
thread block = 113,0,0
thread block = 114,0,0
thread block = 115,0,0
thread block = 116,0,0
thread block = 117,0,0
thread block = 118,0,0
thread block = 119,0,0
thread block = 120,0,0
thread block = 121,0,0
thread block = 122,0,0
thread block = 123,0,0
thread block = 124,0,0
thread block = 125,0,0
thread block = 126,0,0
thread block = 127,0,0
thread block = 128,0,0
thread block = 129,0,0
thread block = 130,0,0
thread block = 131,0,0
thread block = 132,0,0
thread block = 133,0,0
thread block = 134,0,0
thread block = 135,0,0
thread block = 136,0,0
thread block = 137,0,0
thread block = 138,0,0
thread block = 139,0,0
thread block = 140,0,0
thread block = 141,0,0
thread block = 142,0,0
thread block = 143,0,0
thread block = 144,0,0
thread block = 145,0,0
thread block = 146,0,0
thread block = 147,0,0
thread block = 148,0,0
thread block = 149,0,0
thread block = 150,0,0
thread block = 151,0,0
thread block = 152,0,0
thread block = 153,0,0
thread block = 154,0,0
thread block = 155,0,0
thread block = 156,0,0
thread block = 157,0,0
thread block = 158,0,0
thread block = 159,0,0
Destroy streams for kernel 1: size 0
kernel_name = _Z7mem_latPjS_PmS0_ 
kernel_launch_uid = 1 
gpu_sim_cycle = 1871964
gpu_sim_insn = 10557644
gpu_sim_insn_fp = 0
gpu_bytes_leidos = 7602240
gpu_bytes_leidos_Desde_MemFetch = 7594080
gpu_arithmetic_intensity = 0.00000000000000
gpu_gflops = 0.000000
gpu_ipc =       5.6399
gpu_tot_sim_cycle = 1871964
gpu_tot_sim_insn = 10557644
gpu_tot_ipc =       5.6399
gpu_tot_issued_cta = 160
gpu_occupancy = 21.5401% 
gpu_tot_occupancy = 21.5401% 
max_total_param_size = 0
gpu_stall_dramfull = 6017
gpu_stall_icnt2sh    = 0
partiton_level_parallism =       0.1268
partiton_level_parallism_total  =       0.1268
partiton_level_parallism_util =      16.9620
partiton_level_parallism_util_total  =      16.9620
L2_BW  =       5.8701 GB/Sec
L2_BW_total  =       5.8701 GB/Sec
gpu_total_sim_rate=17537

========= Core cache stats =========
L1I_cache:
	L1I_total_cache_accesses = 0
	L1I_total_cache_misses = 0
	L1I_total_cache_pending_hits = 0
	L1I_total_cache_reservation_fails = 0
L1D_cache:
	L1D_cache_core[0]: Access = 11268, Miss = 11012, Miss_rate = 0.977, Pending_hits = 0, Reservation_fails = 9492
	L1D_cache_core[1]: Access = 3072, Miss = 3072, Miss_rate = 1.000, Pending_hits = 0, Reservation_fails = 9595
	L1D_cache_core[2]: Access = 3072, Miss = 3072, Miss_rate = 1.000, Pending_hits = 0, Reservation_fails = 9881
	L1D_cache_core[3]: Access = 3072, Miss = 3072, Miss_rate = 1.000, Pending_hits = 0, Reservation_fails = 9362
	L1D_cache_core[4]: Access = 3072, Miss = 3072, Miss_rate = 1.000, Pending_hits = 0, Reservation_fails = 9531
	L1D_cache_core[5]: Access = 3072, Miss = 3072, Miss_rate = 1.000, Pending_hits = 0, Reservation_fails = 9887
	L1D_cache_core[6]: Access = 3072, Miss = 3072, Miss_rate = 1.000, Pending_hits = 0, Reservation_fails = 8976
	L1D_cache_core[7]: Access = 3072, Miss = 3072, Miss_rate = 1.000, Pending_hits = 0, Reservation_fails = 9840
	L1D_cache_core[8]: Access = 3072, Miss = 3072, Miss_rate = 1.000, Pending_hits = 0, Reservation_fails = 9292
	L1D_cache_core[9]: Access = 3072, Miss = 3072, Miss_rate = 1.000, Pending_hits = 0, Reservation_fails = 9741
	L1D_cache_core[10]: Access = 3072, Miss = 3072, Miss_rate = 1.000, Pending_hits = 0, Reservation_fails = 9078
	L1D_cache_core[11]: Access = 3072, Miss = 3072, Miss_rate = 1.000, Pending_hits = 0, Reservation_fails = 9231
	L1D_cache_core[12]: Access = 3072, Miss = 3072, Miss_rate = 1.000, Pending_hits = 0, Reservation_fails = 8564
	L1D_cache_core[13]: Access = 3072, Miss = 3072, Miss_rate = 1.000, Pending_hits = 0, Reservation_fails = 8983
	L1D_cache_core[14]: Access = 3072, Miss = 3072, Miss_rate = 1.000, Pending_hits = 0, Reservation_fails = 8644
	L1D_cache_core[15]: Access = 3071, Miss = 3071, Miss_rate = 1.000, Pending_hits = 0, Reservation_fails = 9586
	L1D_cache_core[16]: Access = 2816, Miss = 2816, Miss_rate = 1.000, Pending_hits = 0, Reservation_fails = 8850
	L1D_cache_core[17]: Access = 2816, Miss = 2816, Miss_rate = 1.000, Pending_hits = 0, Reservation_fails = 8271
	L1D_cache_core[18]: Access = 2816, Miss = 2816, Miss_rate = 1.000, Pending_hits = 0, Reservation_fails = 8419
	L1D_cache_core[19]: Access = 2816, Miss = 2816, Miss_rate = 1.000, Pending_hits = 0, Reservation_fails = 8343
	L1D_cache_core[20]: Access = 2816, Miss = 2816, Miss_rate = 1.000, Pending_hits = 0, Reservation_fails = 8477
	L1D_cache_core[21]: Access = 2816, Miss = 2816, Miss_rate = 1.000, Pending_hits = 0, Reservation_fails = 8690
	L1D_cache_core[22]: Access = 2816, Miss = 2816, Miss_rate = 1.000, Pending_hits = 0, Reservation_fails = 8055
	L1D_cache_core[23]: Access = 2816, Miss = 2816, Miss_rate = 1.000, Pending_hits = 0, Reservation_fails = 8150
	L1D_cache_core[24]: Access = 2816, Miss = 2816, Miss_rate = 1.000, Pending_hits = 0, Reservation_fails = 9028
	L1D_cache_core[25]: Access = 2816, Miss = 2816, Miss_rate = 1.000, Pending_hits = 0, Reservation_fails = 8829
	L1D_cache_core[26]: Access = 2816, Miss = 2816, Miss_rate = 1.000, Pending_hits = 0, Reservation_fails = 8398
	L1D_cache_core[27]: Access = 2816, Miss = 2816, Miss_rate = 1.000, Pending_hits = 0, Reservation_fails = 8399
	L1D_cache_core[28]: Access = 2816, Miss = 2816, Miss_rate = 1.000, Pending_hits = 0, Reservation_fails = 8509
	L1D_cache_core[29]: Access = 2816, Miss = 2816, Miss_rate = 1.000, Pending_hits = 0, Reservation_fails = 8212
	L1D_cache_core[30]: Access = 2816, Miss = 2816, Miss_rate = 1.000, Pending_hits = 0, Reservation_fails = 8227
	L1D_cache_core[31]: Access = 2816, Miss = 2816, Miss_rate = 1.000, Pending_hits = 0, Reservation_fails = 8465
	L1D_cache_core[32]: Access = 2816, Miss = 2816, Miss_rate = 1.000, Pending_hits = 0, Reservation_fails = 8465
	L1D_cache_core[33]: Access = 2816, Miss = 2816, Miss_rate = 1.000, Pending_hits = 0, Reservation_fails = 8315
	L1D_cache_core[34]: Access = 2816, Miss = 2816, Miss_rate = 1.000, Pending_hits = 0, Reservation_fails = 8464
	L1D_cache_core[35]: Access = 2816, Miss = 2816, Miss_rate = 1.000, Pending_hits = 0, Reservation_fails = 8083
	L1D_cache_core[36]: Access = 2816, Miss = 2816, Miss_rate = 1.000, Pending_hits = 0, Reservation_fails = 8905
	L1D_cache_core[37]: Access = 2816, Miss = 2816, Miss_rate = 1.000, Pending_hits = 0, Reservation_fails = 8618
	L1D_cache_core[38]: Access = 2816, Miss = 2816, Miss_rate = 1.000, Pending_hits = 0, Reservation_fails = 7907
	L1D_cache_core[39]: Access = 2816, Miss = 2816, Miss_rate = 1.000, Pending_hits = 0, Reservation_fails = 9046
	L1D_cache_core[40]: Access = 2816, Miss = 2816, Miss_rate = 1.000, Pending_hits = 0, Reservation_fails = 8764
	L1D_cache_core[41]: Access = 2816, Miss = 2816, Miss_rate = 1.000, Pending_hits = 0, Reservation_fails = 8384
	L1D_cache_core[42]: Access = 2816, Miss = 2816, Miss_rate = 1.000, Pending_hits = 0, Reservation_fails = 8910
	L1D_cache_core[43]: Access = 2816, Miss = 2816, Miss_rate = 1.000, Pending_hits = 0, Reservation_fails = 8449
	L1D_cache_core[44]: Access = 2816, Miss = 2816, Miss_rate = 1.000, Pending_hits = 0, Reservation_fails = 8166
	L1D_cache_core[45]: Access = 2816, Miss = 2816, Miss_rate = 1.000, Pending_hits = 0, Reservation_fails = 7586
	L1D_cache_core[46]: Access = 2816, Miss = 2816, Miss_rate = 1.000, Pending_hits = 0, Reservation_fails = 8164
	L1D_cache_core[47]: Access = 2816, Miss = 2816, Miss_rate = 1.000, Pending_hits = 0, Reservation_fails = 8908
	L1D_cache_core[48]: Access = 2816, Miss = 2816, Miss_rate = 1.000, Pending_hits = 0, Reservation_fails = 8422
	L1D_cache_core[49]: Access = 2816, Miss = 2816, Miss_rate = 1.000, Pending_hits = 0, Reservation_fails = 8373
	L1D_cache_core[50]: Access = 2816, Miss = 2816, Miss_rate = 1.000, Pending_hits = 0, Reservation_fails = 8311
	L1D_cache_core[51]: Access = 2816, Miss = 2816, Miss_rate = 1.000, Pending_hits = 0, Reservation_fails = 8141
	L1D_cache_core[52]: Access = 2816, Miss = 2816, Miss_rate = 1.000, Pending_hits = 0, Reservation_fails = 8455
	L1D_cache_core[53]: Access = 2816, Miss = 2816, Miss_rate = 1.000, Pending_hits = 0, Reservation_fails = 8070
	L1D_cache_core[54]: Access = 2816, Miss = 2816, Miss_rate = 1.000, Pending_hits = 0, Reservation_fails = 8159
	L1D_cache_core[55]: Access = 2816, Miss = 2816, Miss_rate = 1.000, Pending_hits = 0, Reservation_fails = 8616
	L1D_cache_core[56]: Access = 2816, Miss = 2816, Miss_rate = 1.000, Pending_hits = 0, Reservation_fails = 8235
	L1D_cache_core[57]: Access = 2816, Miss = 2816, Miss_rate = 1.000, Pending_hits = 0, Reservation_fails = 8018
	L1D_cache_core[58]: Access = 2816, Miss = 2816, Miss_rate = 1.000, Pending_hits = 0, Reservation_fails = 8779
	L1D_cache_core[59]: Access = 2816, Miss = 2816, Miss_rate = 1.000, Pending_hits = 0, Reservation_fails = 8128
	L1D_cache_core[60]: Access = 2816, Miss = 2816, Miss_rate = 1.000, Pending_hits = 0, Reservation_fails = 8412
	L1D_cache_core[61]: Access = 2816, Miss = 2816, Miss_rate = 1.000, Pending_hits = 0, Reservation_fails = 8572
	L1D_cache_core[62]: Access = 2816, Miss = 2816, Miss_rate = 1.000, Pending_hits = 0, Reservation_fails = 8416
	L1D_cache_core[63]: Access = 2816, Miss = 2816, Miss_rate = 1.000, Pending_hits = 0, Reservation_fails = 8624
	L1D_cache_core[64]: Access = 2816, Miss = 2816, Miss_rate = 1.000, Pending_hits = 0, Reservation_fails = 8009
	L1D_cache_core[65]: Access = 2816, Miss = 2816, Miss_rate = 1.000, Pending_hits = 0, Reservation_fails = 7416
	L1D_cache_core[66]: Access = 2816, Miss = 2816, Miss_rate = 1.000, Pending_hits = 0, Reservation_fails = 7988
	L1D_cache_core[67]: Access = 2816, Miss = 2816, Miss_rate = 1.000, Pending_hits = 0, Reservation_fails = 7817
	L1D_cache_core[68]: Access = 2816, Miss = 2816, Miss_rate = 1.000, Pending_hits = 0, Reservation_fails = 8021
	L1D_cache_core[69]: Access = 2816, Miss = 2816, Miss_rate = 1.000, Pending_hits = 0, Reservation_fails = 7456
	L1D_cache_core[70]: Access = 2816, Miss = 2816, Miss_rate = 1.000, Pending_hits = 0, Reservation_fails = 7754
	L1D_cache_core[71]: Access = 2816, Miss = 2816, Miss_rate = 1.000, Pending_hits = 0, Reservation_fails = 8188
	L1D_cache_core[72]: Access = 2816, Miss = 2816, Miss_rate = 1.000, Pending_hits = 0, Reservation_fails = 7484
	L1D_cache_core[73]: Access = 2816, Miss = 2816, Miss_rate = 1.000, Pending_hits = 0, Reservation_fails = 7952
	L1D_cache_core[74]: Access = 2816, Miss = 2816, Miss_rate = 1.000, Pending_hits = 0, Reservation_fails = 7154
	L1D_cache_core[75]: Access = 2816, Miss = 2816, Miss_rate = 1.000, Pending_hits = 0, Reservation_fails = 7447
	L1D_cache_core[76]: Access = 2816, Miss = 2816, Miss_rate = 1.000, Pending_hits = 0, Reservation_fails = 8060
	L1D_cache_core[77]: Access = 2816, Miss = 2816, Miss_rate = 1.000, Pending_hits = 0, Reservation_fails = 7734
	L1D_cache_core[78]: Access = 2816, Miss = 2816, Miss_rate = 1.000, Pending_hits = 0, Reservation_fails = 7802
	L1D_cache_core[79]: Access = 2816, Miss = 2816, Miss_rate = 1.000, Pending_hits = 0, Reservation_fails = 7473
	L1D_total_cache_accesses = 237571
	L1D_total_cache_misses = 237315
	L1D_total_cache_miss_rate = 0.9989
	L1D_total_cache_pending_hits = 0
	L1D_total_cache_reservation_fails = 677625
	L1D_cache_data_port_util = 0.000
	L1D_cache_fill_port_util = 0.003
L1C_cache:
	L1C_total_cache_accesses = 0
	L1C_total_cache_misses = 0
	L1C_total_cache_pending_hits = 0
	L1C_total_cache_reservation_fails = 0
L1T_cache:
	L1T_total_cache_accesses = 0
	L1T_total_cache_misses = 0
	L1T_total_cache_pending_hits = 0
	L1T_total_cache_reservation_fails = 0

Total_core_cache_stats:
	Total_core_cache_stats_breakdown[GLOBAL_ACC_R][HIT] = 256
	Total_core_cache_stats_breakdown[GLOBAL_ACC_R][HIT_RESERVED] = 0
	Total_core_cache_stats_breakdown[GLOBAL_ACC_R][MISS] = 1984
	Total_core_cache_stats_breakdown[GLOBAL_ACC_R][RESERVATION_FAIL] = 0
	Total_core_cache_stats_breakdown[GLOBAL_ACC_R][SECTOR_MISS] = 5952
	Total_core_cache_stats_breakdown[GLOBAL_ACC_R][MSHR_HIT] = 0
	Total_core_cache_stats_breakdown[LOCAL_ACC_R][HIT] = 0
	Total_core_cache_stats_breakdown[LOCAL_ACC_R][HIT_RESERVED] = 0
	Total_core_cache_stats_breakdown[LOCAL_ACC_R][MISS] = 0
	Total_core_cache_stats_breakdown[LOCAL_ACC_R][RESERVATION_FAIL] = 0
	Total_core_cache_stats_breakdown[LOCAL_ACC_R][SECTOR_MISS] = 0
	Total_core_cache_stats_breakdown[LOCAL_ACC_R][MSHR_HIT] = 0
	Total_core_cache_stats_breakdown[CONST_ACC_R][HIT] = 0
	Total_core_cache_stats_breakdown[CONST_ACC_R][HIT_RESERVED] = 0
	Total_core_cache_stats_breakdown[CONST_ACC_R][MISS] = 0
	Total_core_cache_stats_breakdown[CONST_ACC_R][RESERVATION_FAIL] = 0
	Total_core_cache_stats_breakdown[CONST_ACC_R][SECTOR_MISS] = 0
	Total_core_cache_stats_breakdown[CONST_ACC_R][MSHR_HIT] = 0
	Total_core_cache_stats_breakdown[TEXTURE_ACC_R][HIT] = 0
	Total_core_cache_stats_breakdown[TEXTURE_ACC_R][HIT_RESERVED] = 0
	Total_core_cache_stats_breakdown[TEXTURE_ACC_R][MISS] = 0
	Total_core_cache_stats_breakdown[TEXTURE_ACC_R][RESERVATION_FAIL] = 0
	Total_core_cache_stats_breakdown[TEXTURE_ACC_R][SECTOR_MISS] = 0
	Total_core_cache_stats_breakdown[TEXTURE_ACC_R][MSHR_HIT] = 0
	Total_core_cache_stats_breakdown[GLOBAL_ACC_W][HIT] = 0
	Total_core_cache_stats_breakdown[GLOBAL_ACC_W][HIT_RESERVED] = 0
	Total_core_cache_stats_breakdown[GLOBAL_ACC_W][MISS] = 57349
	Total_core_cache_stats_breakdown[GLOBAL_ACC_W][RESERVATION_FAIL] = 677625
	Total_core_cache_stats_breakdown[GLOBAL_ACC_W][SECTOR_MISS] = 172030
	Total_core_cache_stats_breakdown[GLOBAL_ACC_W][MSHR_HIT] = 0
	Total_core_cache_stats_breakdown[LOCAL_ACC_W][HIT] = 0
	Total_core_cache_stats_breakdown[LOCAL_ACC_W][HIT_RESERVED] = 0
	Total_core_cache_stats_breakdown[LOCAL_ACC_W][MISS] = 0
	Total_core_cache_stats_breakdown[LOCAL_ACC_W][RESERVATION_FAIL] = 0
	Total_core_cache_stats_breakdown[LOCAL_ACC_W][SECTOR_MISS] = 0
	Total_core_cache_stats_breakdown[LOCAL_ACC_W][MSHR_HIT] = 0
	Total_core_cache_stats_breakdown[L1_WRBK_ACC][HIT] = 0
	Total_core_cache_stats_breakdown[L1_WRBK_ACC][HIT_RESERVED] = 0
	Total_core_cache_stats_breakdown[L1_WRBK_ACC][MISS] = 0
	Total_core_cache_stats_breakdown[L1_WRBK_ACC][RESERVATION_FAIL] = 0
	Total_core_cache_stats_breakdown[L1_WRBK_ACC][SECTOR_MISS] = 0
	Total_core_cache_stats_breakdown[L1_WRBK_ACC][MSHR_HIT] = 0
	Total_core_cache_stats_breakdown[L2_WRBK_ACC][HIT] = 0
	Total_core_cache_stats_breakdown[L2_WRBK_ACC][HIT_RESERVED] = 0
	Total_core_cache_stats_breakdown[L2_WRBK_ACC][MISS] = 0
	Total_core_cache_stats_breakdown[L2_WRBK_ACC][RESERVATION_FAIL] = 0
	Total_core_cache_stats_breakdown[L2_WRBK_ACC][SECTOR_MISS] = 0
	Total_core_cache_stats_breakdown[L2_WRBK_ACC][MSHR_HIT] = 0
	Total_core_cache_stats_breakdown[INST_ACC_R][HIT] = 0
	Total_core_cache_stats_breakdown[INST_ACC_R][HIT_RESERVED] = 0
	Total_core_cache_stats_breakdown[INST_ACC_R][MISS] = 0
	Total_core_cache_stats_breakdown[INST_ACC_R][RESERVATION_FAIL] = 0
	Total_core_cache_stats_breakdown[INST_ACC_R][SECTOR_MISS] = 0
	Total_core_cache_stats_breakdown[INST_ACC_R][MSHR_HIT] = 0
	Total_core_cache_stats_breakdown[L1_WR_ALLOC_R][HIT] = 0
	Total_core_cache_stats_breakdown[L1_WR_ALLOC_R][HIT_RESERVED] = 0
	Total_core_cache_stats_breakdown[L1_WR_ALLOC_R][MISS] = 0
	Total_core_cache_stats_breakdown[L1_WR_ALLOC_R][RESERVATION_FAIL] = 0
	Total_core_cache_stats_breakdown[L1_WR_ALLOC_R][SECTOR_MISS] = 0
	Total_core_cache_stats_breakdown[L1_WR_ALLOC_R][MSHR_HIT] = 0
	Total_core_cache_stats_breakdown[L2_WR_ALLOC_R][HIT] = 0
	Total_core_cache_stats_breakdown[L2_WR_ALLOC_R][HIT_RESERVED] = 0
	Total_core_cache_stats_breakdown[L2_WR_ALLOC_R][MISS] = 0
	Total_core_cache_stats_breakdown[L2_WR_ALLOC_R][RESERVATION_FAIL] = 0
	Total_core_cache_stats_breakdown[L2_WR_ALLOC_R][SECTOR_MISS] = 0
	Total_core_cache_stats_breakdown[L2_WR_ALLOC_R][MSHR_HIT] = 0
	Total_core_cache_stats_breakdown[GLOBAL_ACC_R][TOTAL_ACCESS] = 8192
	Total_core_cache_stats_breakdown[GLOBAL_ACC_W][TOTAL_ACCESS] = 229379

Total_core_cache_fail_stats:
	Total_core_cache_fail_stats_breakdown[GLOBAL_ACC_W][MISS_QUEUE_FULL] = 677625
ctas_completed 160, Shader 0 warp_id issue ditsribution:
warp_id:
0, 1, 2, 3, 4, 5, 6, 7, 8, 9, 10, 11, 12, 13, 14, 15, 16, 17, 18, 19, 20, 21, 22, 23, 24, 25, 26, 27, 28, 29, 30, 31, 32, 33, 34, 35, 36, 37, 38, 39, 40, 41, 42, 43, 44, 45, 46, 47, 48, 49, 50, 51, 52, 53, 54, 55, 56, 57, 58, 59, 60, 61, 62, 63, 
distro:
9876, 75, 75, 75, 75, 75, 75, 75, 75, 75, 75, 75, 75, 75, 75, 75, 75, 75, 75, 75, 75, 75, 75, 75, 75, 75, 75, 75, 75, 75, 75, 75, 75, 75, 75, 75, 75, 75, 75, 75, 75, 75, 75, 75, 75, 75, 75, 75, 75, 75, 75, 75, 75, 75, 75, 75, 75, 75, 75, 75, 75, 75, 75, 75, 
gpgpu_n_tot_thrd_icount = 10557644
gpgpu_n_tot_w_icount = 365130
gpgpu_n_stall_shd_mem = 315003
gpgpu_n_mem_read_local = 0
gpgpu_n_mem_write_local = 0
gpgpu_n_mem_read_global = 7936
gpgpu_n_mem_write_global = 229379
gpgpu_n_mem_texture = 0
gpgpu_n_mem_const = 0
gpgpu_n_load_insn  = 32768
gpgpu_n_store_insn = 917516
gpgpu_n_shmem_insn = 0
gpgpu_n_sstarr_insn = 0
gpgpu_n_tex_insn = 0
gpgpu_n_const_mem_insn = 0
gpgpu_n_param_mem_insn = 0
gpgpu_n_shmem_bkconflict = 0
gpgpu_n_cache_bkconflict = 0
gpgpu_n_intrawarp_mshr_merge = 0
gpgpu_n_cmem_portconflict = 0
gpgpu_stall_shd_mem[c_mem][resource_stall] = 0
gpgpu_stall_shd_mem[s_mem][bk_conf] = 0
gpgpu_stall_shd_mem[gl_mem][resource_stall] = 286332
gpgpu_stall_shd_mem[gl_mem][coal_stall] = 28671
gpgpu_stall_shd_mem[gl_mem][data_port_stall] = 0
gpu_reg_bank_conflict_stalls = 0
Warp Occupancy Distribution:
Stall:1379197	W0_Idle:6052268	W0_Scoreboard:1852764	W1:0	W2:0	W3:0	W4:9795	W5:0	W6:0	W7:0	W8:0	W9:0	W10:0	W11:0	W12:0	W13:0	W14:0	W15:0	W16:0	W17:0	W18:0	W19:0	W20:0	W21:0	W22:0	W23:0	W24:0	W25:0	W26:0	W27:0	W28:16	W29:0	W30:0	W31:0	W32:328688
single_issue_nums: WS0:98633	WS1:88832	WS2:88832	WS3:88833	
dual_issue_nums: WS0:0	WS1:0	WS2:0	WS3:0	
traffic_breakdown_coretomem[GLOBAL_ACC_R] = 63488 {8:7936,}
traffic_breakdown_coretomem[GLOBAL_ACC_W] = 9175160 {40:229379,}
traffic_breakdown_memtocore[GLOBAL_ACC_R] = 317440 {40:7936,}
traffic_breakdown_memtocore[GLOBAL_ACC_W] = 1835032 {8:229379,}
maxmflatency = 1933 
max_icnt2mem_latency = 1696 
maxmrqlatency = 1469 
max_icnt2sh_latency = 173 
averagemflatency = 1041 
avg_icnt2mem_latency = 868 
avg_mrq_latency = 170 
avg_icnt2sh_latency = 4 
mrq_lat_table:2033 	2529 	149 	262 	491 	707 	936 	1283 	1624 	1237 	84 	0 	0 	0 	0 	0 	0 	0 	0 	0 	0 	0 	0 	0 	0 	0 	0 	0 	0 	0 	0 	0 	
dq_lat_table:0 	0 	0 	0 	0 	0 	0 	0 	0 	0 	0 	0 	0 	0 	0 	0 	0 	0 	0 	0 	0 	0 	0 	0 	0 	0 	0 	0 	0 	0 	0 	0 	
mf_lat_table:0 	0 	0 	0 	0 	0 	0 	15937 	23910 	42650 	154818 	0 	0 	0 	0 	0 	0 	0 	0 	0 	0 	0 	0 	0 	0 	0 	0 	0 	0 	0 	0 	0 	
icnt2mem_lat_table:0 	0 	0 	0 	11315 	5312 	3796 	10713 	21092 	57023 	128064 	0 	0 	0 	0 	0 	0 	0 	0 	0 	0 	0 	0 	0 	
icnt2sh_lat_table:0 	182008 	41262 	8158 	2648 	1449 	1607 	183 	0 	0 	0 	0 	0 	0 	0 	0 	0 	0 	0 	0 	0 	0 	0 	0 	
mf_lat_pw_table:0 	0 	0 	0 	0 	0 	0 	2183 	1529 	2 	9 	0 	0 	0 	0 	0 	0 	0 	0 	0 	0 	0 	0 	0 	0 	0 	0 	0 	0 	0 	0 	0 	
maximum concurrent accesses to same row:
dram[0]:        10        10         4         3        12        11        12        10         8        12        16        16         0         0         0         0 
dram[1]:        10        10         4         2        10         8         9        10        10        12        10        14         0         0         0         0 
dram[2]:         2         2         0         4        11         8        11        10        10        10        14        14         0         0         0         0 
dram[3]:         2         2         0         0        13        14         9        12         8        12        12        16         0         0         0         0 
dram[4]:        10        10         2         2         8        12        10         9         6        12        16        16         0         0         0         0 
dram[5]:        10         2         0         2         9        12        10        12         8         8        16        16         0         0         0         0 
dram[6]:        10         2         0         2        10         8         8        10         8         8        12        10         0         0         0         0 
dram[7]:        10        10         4         4        12        10        10         7        12         8        14        12         0         0         0         0 
dram[8]:         2         2         0         0         8        10        13         9        12        14        12        12         0         0         0         0 
dram[9]:         0         0         0         0        12         8        10         9        12        10        12        12         0         0         0         0 
dram[10]:         2         2         0         0        10        12         7         7        14        14        12        12         0         0         0         0 
dram[11]:         2         2         0         0         7         8        10        10        14        14        12        12         0         0         0         0 
dram[12]:         2         2         0         0         8         8         9        12        14        14        12        12         0         0         0         0 
dram[13]:         2         2         0         0        10         9         9        10        12        14        12        12         0         0         0         0 
dram[14]:         0         2         0         0        10        10        13        10        14        10        12        12         0         0         0         0 
dram[15]:         0         2         0         0         8        10         7        11        14        12        12        12         0         0         0         0 
dram[16]:        32        39         8         8         8         4         8         8        14        14         0         0        14        12         4         4 
dram[17]:        32        40         7         8         6         6         6         6        14        14         0         0         6         8         6         7 
dram[18]:        34        25         8         8         4         8        10        14        14        14         0         0        12        12         0         0 
dram[19]:        17        40         8         8         8         4         6         8        14        14         0         0        12         6         0         0 
dram[20]:        37        33         8         8         6         4        10         8        14        13         0         0         4        16         8        10 
dram[21]:        25        25         8         8         6         8        10         8        14        13         0         0         4        14         9         9 
dram[22]:        31        31         7         8         8         4         8         6         6        10         0         0        12        12         7         0 
dram[23]:        23        23         7         7         4         6         6         8        12        12         0         0         6         6         6         6 
dram[24]:         8         8         8         4         8         4         6         4         0         8         0         0        12        10         6         5 
dram[25]:         8         8         6         8         8         4         4         4         8         8         0         0        10        10         6         6 
dram[26]:         7         6         8         5         6         8         6         6         8         8         0         0        10        10         5         8 
dram[27]:        32         8         8         8         4         8         4         6         8         8         0         0         9        10         5         6 
dram[28]:        32        32         4         8         2         6         4         4         8         8         0         0         9         9         6         6 
dram[29]:        20         7         6         6         8         2         4         4         8         8         0         0         9        12         4         6 
dram[30]:         8         8         8         8         6         6         4         6         8         8         0         0         9         9         4         8 
dram[31]:        32        40         8         8         6         4         4         5         8         8         0         0        12         9         6         6 
maximum service time to same row:
dram[0]:   1377058   1317590     11718   1376693     10841    413384     10981     10926     10756     10775     10746     10907     10858     10851     11374     11353 
dram[1]:   1257723   1197838     11914   1257644    231482    292144     10935     10909     10640     10829     10889     10928     10911     10953     11570     11490 
dram[2]:   1021806     11711     11544     11335     10802     49989     10894     10860     10911     10858     10804     11020     10850     10989     11631     11348 
dram[3]:     11512    171149     12033     11856    110876    170536     10926     10873     10907     10974     10962     10872     11178     10814     11811     11711 
dram[4]:   1496516   1436403   1436378   1496095    474175    534922     10909     10899     10913     10979     10924     10981     10967     10795     11902     11685 
dram[5]:   1613703    654444     11643   1613794    595032    654141     10960     10916     10921     10834     10991     10919     10788     10759     11468     11592 
dram[6]:   1851804     11852     11944   1851118    835230     10870     10834     10863     10693     10810     11129     10947     10970     10780     11379     11554 
dram[7]:   1733519   1673362   1673856   1733489     11045     10926     10938     10880     10851     10855     11032     10872     11124     10868     11677     11811 
dram[8]:     11437     11491     11665     11539     10943     11049     10802     10924     11122     11197     10911     10712     11365     11236     12053     12160 
dram[9]:     11651     11561     11941     11646     11113     11110     10964     10880     10948     11210     10688     10613     11423     11280     12128     12143 
dram[10]:     11548     11638     11861     11977     10989     11067     10938     10868     11185     11023     10657     10844     11107     11222     12118     11658 
dram[11]:     11486     11772     12142     12067     11047     11005     10943     10867     11236     11214     10793     10841     11151     11219     12053     11961 
dram[12]:     11496     11578     11915     11612     11069     10955     10974     10800     11132     10877     10691     10921     11178     11416     12016     11983 
dram[13]:     11466     11273     11629     11983     10921     10974     10897     11025     11073     11185     10800     10821     11347     11342     12007     11878 
dram[14]:     11936     11311     11823     11818     11124     10858     10991     10909     11139     11216     10814     10916     11148     11188     12155     12024 
dram[15]:     11389     11291     11461     11970     10986     11076     10863     10855     11102     11178     10821     10693     11209     11200     11830     12157 
dram[16]:   1032554   1032382    479951    481989     11471     11098     11217     10880    990810    932237     10984     10957    553813     10884    243438     10766 
dram[17]:    911978    917131    436102    555219     11059     11371     11115     10804   1108162   1050256     11081     10799     10899     11005    244257    243278 
dram[18]:   1223781    785042    714049    551450     11096     11374    254367     11091   1345466   1286008     10945     10909     10981    733370     10768     10977 
dram[19]:   1026194   1265933    713381    712523     11037     11284     10782     11187   1226562   1166667     10957     11006     10860     10858     10826     10850 
dram[20]:    800346    610459    434103    553179     11336     11241     10843     10945   1820174   1297550     10911     11023     10942     11103    738736    677983 
dram[21]:    436332    371684    432462    549766     11217     11386     10996     10708   1702029   1178374     10901     11093     10829     10964    860017    799342 
dram[22]:    563496    443872    735728    488960     11219     11134     10799     10819     11006     11236     11081     10991     10882    129384    618710     10865 
dram[23]:    559533    611618    564883    684487     11185     11078     11093     10931     11006     11165     10695     10853     10989     10994    500073    438266 
dram[24]:    339304     32411   1149609    869817   1209483     10950     11202     11326     10931   1367594     11091     11263     10531   1629918    871276     10535 
dram[25]:     93372     11095    990346   1110671   1328591   1269123     11130     11146   1484069   1366288     10940     10805     10594     10606     10639     10838 
dram[26]:    335184     10790   1033224    568329     11204   1033339     11061     11054   1479624   1360277     11005     10916     10528   1511962    510459    449639 
dram[27]:   1354539    157137    757607    973246     10824    915161     11139     10914   1482843   1362514     10882     11073     10695   1394203     10860    571131 
dram[28]:   1095461   1012044    778222    896401     10771     10867     11071     10952    819380    879771     11098     10787     10734     10555     25757     10800 
dram[29]:    891242     22566    919037    582882   1098288     10722     11173     11100    697930    758606     11107     11110     10572     10727     10720     86428 
dram[30]:    203999    264644    661997    781155     10863   1043001    884470    823421    528424    518848     10732     11115   1215397   1154180     10679    328180 
dram[31]:   1126163   1273103    924141    657045     10931     10933    761432     11204    579622    638682     11085     10977     10574     10555    267709     10875 
average row accesses per activate:
dram[0]:  6.000000  6.000000  7.000000  3.500000  3.700000  4.625000  7.750000  6.200000  4.400000  5.500000  7.333333  7.333333  6.000000  6.000000  4.000000  4.000000 
dram[1]:  6.000000  6.000000  7.000000  3.500000  5.142857  3.700000  6.200000  6.400000  4.400000  5.500000  4.400000  4.400000  6.000000  6.000000  4.000000  4.000000 
dram[2]:  2.000000  6.000000  4.000000  7.000000  3.500000  4.111111  5.166667  5.166667  4.400000  4.400000  5.500000  7.333333  6.000000  6.000000  4.000000  4.000000 
dram[3]:  6.000000  4.000000  4.000000  4.000000  4.500000  4.111111  6.200000 10.666667  4.400000  7.333333  4.400000  7.333333  6.000000  6.000000  4.000000  4.000000 
dram[4]:  6.000000  6.000000  3.500000  3.500000  4.111111  4.500000  6.400000  6.200000  4.400000  7.333333  7.333333  7.333333  6.000000  6.000000  4.000000  4.000000 
dram[5]:  6.000000  4.000000  4.000000  3.500000  3.600000  3.600000  5.333333  8.000000  5.500000  4.400000  7.333333  7.333333  6.000000  6.000000  4.000000  4.000000 
dram[6]:  6.000000  6.000000  4.000000  3.500000  4.000000  3.700000  4.428571  5.333333  3.666667  4.400000  4.400000  3.666667  6.000000  6.000000  4.000000  4.000000 
dram[7]:  6.000000  6.000000  4.666667  4.666667  4.625000  6.166667  6.200000  4.428571  7.333333  4.400000  5.500000  5.500000  6.000000  6.000000  4.000000  4.000000 
dram[8]:  6.000000  6.000000  4.000000  4.000000  3.777778  4.250000  6.400000  5.333333  6.500000  8.666667  7.000000  7.000000 14.000000 14.000000  2.000000  2.000000 
dram[9]:  2.000000  2.000000  4.000000  4.000000  5.666667  4.857143  5.333333  6.400000  5.200000  6.500000  7.000000  7.000000 14.000000 14.000000  2.000000  2.000000 
dram[10]:  6.000000  6.000000  4.000000  4.000000  3.777778  7.000000  4.428571  4.000000  8.666667  8.666667  7.000000  7.000000 14.000000 14.000000  2.000000  2.000000 
dram[11]:  6.000000  6.000000  4.000000  4.000000  4.375000  4.250000  8.000000  5.166667  6.500000  6.500000  7.000000  7.000000 14.000000 14.000000  2.000000  2.000000 
dram[12]:  6.000000  6.000000  4.000000  4.000000  4.857143  4.857143  5.333333  4.571429  6.500000  8.666667  7.000000  7.000000 14.000000 14.000000  2.000000  2.000000 
dram[13]:  6.000000  6.000000  4.000000  4.000000  5.000000  5.833333  5.166667  4.428571  5.200000  6.500000  7.000000  7.000000 14.000000 14.000000  2.000000  2.000000 
dram[14]:  2.000000  6.000000  4.000000  4.000000  4.857143  4.250000  8.000000  8.000000  8.666667  6.500000  7.000000  7.000000 14.000000 14.000000  2.000000  2.000000 
dram[15]:  2.000000  6.000000  4.000000  4.000000  4.250000  5.666667  4.000000  6.400000  6.500000  6.500000  7.000000  7.000000 14.000000 14.000000  2.000000  2.000000 
dram[16]:  8.000000  6.600000  7.250000  9.500000  6.000000  4.000000  4.500000  4.500000  6.000000  6.000000  8.000000  8.000000  5.800000  4.000000  2.200000  3.333333 
dram[17]:  9.666667  9.428572  7.285714  7.000000  4.000000  4.000000  4.500000  4.500000  6.000000  6.000000  8.000000  8.000000  5.600000  4.666667  2.400000  3.333333 
dram[18]:  8.285714  7.555555  6.875000  6.222222  4.000000  6.000000  4.000000  6.000000  6.000000  6.000000  8.000000  8.000000  5.600000  4.833333  9.000000 10.000000 
dram[19]:  5.272727  9.428572  7.250000  8.285714  6.000000  4.000000  3.600000  4.500000  6.000000  6.000000  8.000000  8.000000  4.000000  4.666667 10.000000  8.000000 
dram[20]:  9.571428  6.700000  8.000000  7.000000  4.000000  4.000000  4.500000  5.333333  6.000000  6.000000  8.000000  8.000000  4.666667  9.333333  3.666667  6.500000 
dram[21]:  6.090909  6.700000  7.000000  8.000000  4.000000  6.000000  4.500000  4.500000  6.000000  6.000000  8.000000  8.000000  4.000000  7.000000  5.500000  5.500000 
dram[22]:  8.375000  7.444445  7.142857  7.250000  4.000000  4.000000  4.500000  3.600000  6.000000  6.000000  9.000000  8.000000  5.600000  4.142857  3.666667  9.000000 
dram[23]:  6.555555  7.444445  6.500000  8.166667  4.000000  4.000000  4.500000  4.500000  6.000000  6.000000  8.000000  8.000000  5.600000  5.600000  3.333333  3.666667 
dram[24]:  6.000000  6.200000  8.857142  6.888889  6.000000  5.333333  2.800000  3.500000 10.000000  4.000000 14.000000 16.000000  7.000000  4.000000  2.750000  2.857143 
dram[25]:  6.200000  8.857142  7.750000  7.750000  5.000000  4.000000  4.000000  4.000000  4.000000  4.000000 16.000000 16.000000  4.666667  4.666667  2.857143  2.500000 
dram[26]:  5.300000  8.857142 10.000000  6.777778  6.000000  5.333333  2.800000  3.500000  4.000000  4.000000 14.000000 14.000000  4.666667  3.600000  3.142857  3.142857 
dram[27]:  6.400000  8.857142  8.857142 12.000000  5.333333  5.666667  2.333333  3.500000  4.000000  4.000000 16.000000 15.000000  4.000000  3.750000  3.333333  2.625000 
dram[28]:  7.000000  5.818182  7.750000  8.857142  5.333333  4.250000  2.600000  3.500000  4.000000  4.000000 14.000000 14.000000  4.666667  4.666667  3.666667  3.333333 
dram[29]:  5.100000  5.700000 10.000000  6.666667  5.333333  6.000000  2.800000  2.800000  4.000000  4.000000 14.000000 14.000000  4.666667  5.333333  2.750000  2.750000 
dram[30]:  7.750000  6.888889  7.625000  7.625000  5.666667  3.600000  2.600000  2.500000  4.000000  4.000000 16.000000 14.000000  3.750000  4.000000  2.857143  4.400000 
dram[31]:  5.818182  9.142858  8.571428  8.857142  5.333333  5.333333  2.285714  2.800000  4.000000  4.000000 15.000000 16.000000  7.000000  4.666667  3.000000  2.500000 
average row locality = 11335/2024 = 5.600296
number of total memory accesses made:
dram[0]:         0         0         0         0         0         0         0         0         0         0         0         0         0         0         0         0 
dram[1]:         0         0         0         0         0         0         0         0         0         0         0         0         0         0         0         0 
dram[2]:         0         0         0         0         0         0         0         0         0         0         0         0         0         0         0         0 
dram[3]:         0         0         0         0         0         0         0         0         0         0         0         0         0         0         0         0 
dram[4]:         0         0         0         0         0         0         0         0         0         0         0         0         0         0         0         0 
dram[5]:         0         0         0         0         0         0         0         0         0         0         0         0         0         0         0         0 
dram[6]:         0         0         0         0         0         0         0         0         0         0         0         0         0         0         0         0 
dram[7]:         0         0         0         0         0         0         0         0         0         0         0         0         0         0         0         0 
dram[8]:         0         0         0         0         0         0         0         0         0         0         0         0         0         0         0         0 
dram[9]:         0         0         0         0         0         0         0         0         0         0         0         0         0         0         0         0 
dram[10]:         0         0         0         0         0         0         0         0         0         0         0         0         0         0         0         0 
dram[11]:         0         0         0         0         0         0         0         0         0         0         0         0         0         0         0         0 
dram[12]:         0         0         0         0         0         0         0         0         0         0         0         0         0         0         0         0 
dram[13]:         0         0         0         0         0         0         0         0         0         0         0         0         0         0         0         0 
dram[14]:         0         0         0         0         0         0         0         0         0         0         0         0         0         0         0         0 
dram[15]:         0         0         0         0         0         0         0         0         0         0         0         0         0         0         0         0 
dram[16]:         0         0         0         0         0         0         0         0         0         0         0         0         0         0         0         0 
dram[17]:         0         0         0         0         0         0         0         0         0         0         0         0         0         0         0         0 
dram[18]:         0         0         0         0         0         0         0         0         0         0         0         0         0         0         0         0 
dram[19]:         0         0         0         0         0         0         0         0         0         0         0         0         0         0         0         0 
dram[20]:         0         0         0         0         0         0         0         0         0         0         0         0         0         0         0         0 
dram[21]:         0         0         0         0         0         0         0         0         0         0         0         0         0         0         0         0 
dram[22]:         0         0         0         0         0         0         0         0         0         0         0         0         0         0         0         0 
dram[23]:         0         0         0         0         0         0         0         0         0         0         0         0         0         0         0         0 
dram[24]:         0         0         0         0         0         0         0         0         0         0         0         0         0         0         0         0 
dram[25]:         0         0         0         0         0         0         0         0         0         0         0         0         0         0         0         0 
dram[26]:         0         0         0         0         0         0         0         0         0         0         0         0         0         0         0         0 
dram[27]:         0         0         0         0         0         0         0         0         0         0         0         0         0         0         0         0 
dram[28]:         0         0         0         0         0         0         0         0         0         0         0         0         0         0         0         0 
dram[29]:         0         0         0         0         0         0         0         0         0         0         0         0         0         0         0         0 
dram[30]:         0         0         0         0         0         0         0         0         0         0         0         0         0         0         0         0 
dram[31]:         0         0         0         0         0         0         0         0         0         0         0         0         0         0         0         0 
total accesses: 0
min_bank_accesses = 0!
min_chip_accesses = 0!
number of total read accesses:
dram[0]:         8         8         8         8         0         0         0         0         0         0         0         0         0         0         0         0 
dram[1]:         8         8         8         8         0         0         0         0         0         0         0         0         0         0         0         0 
dram[2]:         0         8         0         8         0         0         0         0         0         0         0         0         0         0         0         0 
dram[3]:         8         8         0         0         0         0         0         0         0         0         0         0         0         0         0         0 
dram[4]:         8         8         8         8         0         0         0         0         0         0         0         0         0         0         0         0 
dram[5]:         8         8         0         8         0         0         0         0         0         0         0         0         0         0         0         0 
dram[6]:         8         8         0         8         0         0         0         0         0         0         0         0         0         0         0         0 
dram[7]:         8         8         8         8         0         0         0         0         0         0         0         0         0         0         0         0 
dram[8]:         8         8         0         0         0         0         0         0         0         0         0         0         0         0         0         0 
dram[9]:         0         0         0         0         0         0         0         0         0         0         0         0         0         0         0         0 
dram[10]:         8         8         0         0         0         0         0         0         0         0         0         0         0         0         0         0 
dram[11]:         8         8         0         0         0         0         0         0         0         0         0         0         0         0         0         0 
dram[12]:         8         8         0         0         0         0         0         0         0         0         0         0         0         0         0         0 
dram[13]:         8         8         0         0         0         0         0         0         0         0         0         0         0         0         0         0 
[...]
queue_avg = 0.023401 


dram_util_bins: 0 0 0 0 0 0 0 0 0 0
dram_eff_bins: 0 0 0 0 0 0 0 0 0 0
mrqq: max=56 avg=0.0234014
Memory Partition 28: 
Cache L2_bank_056:
MSHR contents

Cache L2_bank_057:
MSHR contents

In Dram Latency Queue (total = 0): 
DRAM[28]: 16 bks, busW=16 BL=2 CL=12, tRRD=3 tCCD=1, tRCD=12 tRAS=28 tRP=12 tRC=40
n_cmd=1099633 n_nop=1098302 n_act=76 n_pre=60 n_ref_event=0 n_req=426 n_rd=136 n_rd_L2_A=0 n_write=0 n_wr_bk=1160 bw_util=0.001179
n_activity=3710 dram_eff=0.3493
bk0: 24a 1098705i bk1: 32a 1098685i bk2: 40a 1098842i bk3: 40a 1098839i bk4: 0a 1099105i bk5: 0a 1099203i bk6: 0a 1099076i bk7: 0a 1099124i bk8: 0a 1099420i bk9: 0a 1099328i bk10: 0a 1099313i bk11: 0a 1099478i bk12: 0a 1099337i bk13: 0a 1099354i bk14: 0a 1098908i bk15: 0a 1098939i 

------------------------------------------------------------------------

Row_Buffer_Locality = 0.821596
Row_Buffer_Locality_read = 0.977941
Row_Buffer_Locality_write = 0.748276
Bank_Level_Parallism = 4.290260
Bank_Level_Parallism_Col = 3.986068
Bank_Level_Parallism_Ready = 3.660494
write_to_read_ratio_blp_rw_average = 0.915119
GrpLevelPara = 2.266254 

BW Util details:
bwutil = 0.001179 
total_CMD = 1099633 
util_bw = 1296 
Wasted_Col = 656 
Wasted_Row = 122 
Idle = 1097559 

BW Util Bottlenecks: 
RCDc_limit = 36 
RCDWRc_limit = 181 
WTRc_limit = 2 
RTWc_limit = 288 
CCDLc_limit = 234 
rwq = 0 
CCDLc_limit_alone = 232 
WTRc_limit_alone = 2 
RTWc_limit_alone = 286 

Commands details: 
total_CMD = 1099633 
n_nop = 1098302 
Read = 136 
Write = 0 
L2_Alloc = 0 
L2_WB = 1160 
n_act = 76 
n_pre = 60 
n_ref = 0 
n_req = 426 
total_req = 1296 

Dual Bus Interface Util: 
issued_total_row = 136 
issued_total_col = 1296 
Row_Bus_Util =  0.000124 
CoL_Bus_Util = 0.001179 
Either_Row_CoL_Bus_Util = 0.001210 
Issued_on_Two_Bus_Simul_Util = 0.000092 
issued_two_Eff = 0.075883 
queue_avg = 0.023063 


dram_util_bins: 0 0 0 0 0 0 0 0 0 0
dram_eff_bins: 0 0 0 0 0 0 0 0 0 0
mrqq: max=55 avg=0.0230631
Memory Partition 29: 
Cache L2_bank_058:
MSHR contents

Cache L2_bank_059:
MSHR contents

In Dram Latency Queue (total = 0): 
DRAM[29]: 16 bks, busW=16 BL=2 CL=12, tRRD=3 tCCD=1, tRCD=12 tRAS=28 tRP=12 tRC=40
n_cmd=1099633 n_nop=1098314 n_act=81 n_pre=65 n_ref_event=0 n_req=416 n_rd=128 n_rd_L2_A=0 n_write=0 n_wr_bk=1152 bw_util=0.001164
n_activity=3498 dram_eff=0.3659
bk0: 20a 1098747i bk1: 28a 1098802i bk2: 40a 1099000i bk3: 40a 1098929i bk4: 0a 1099199i bk5: 0a 1099235i bk6: 0a 1099127i bk7: 0a 1099069i bk8: 0a 1099308i bk9: 0a 1099331i bk10: 0a 1099335i bk11: 0a 1099323i bk12: 0a 1099356i bk13: 0a 1099255i bk14: 0a 1098837i bk15: 0a 1098909i 

------------------------------------------------------------------------

Row_Buffer_Locality = 0.805288
Row_Buffer_Locality_read = 0.968750
Row_Buffer_Locality_write = 0.732639
Bank_Level_Parallism = 4.406423
Bank_Level_Parallism_Col = 4.016631
Bank_Level_Parallism_Ready = 3.551563
write_to_read_ratio_blp_rw_average = 0.912554
GrpLevelPara = 2.334764 

BW Util details:
bwutil = 0.001164 
total_CMD = 1099633 
util_bw = 1280 
Wasted_Col = 598 
Wasted_Row = 115 
Idle = 1097640 

BW Util Bottlenecks: 
RCDc_limit = 48 
RCDWRc_limit = 175 
WTRc_limit = 2 
RTWc_limit = 288 
CCDLc_limit = 182 
rwq = 0 
CCDLc_limit_alone = 180 
WTRc_limit_alone = 2 
RTWc_limit_alone = 286 

Commands details: 
total_CMD = 1099633 
n_nop = 1098314 
Read = 128 
Write = 0 
L2_Alloc = 0 
L2_WB = 1152 
n_act = 81 
n_pre = 65 
n_ref = 0 
n_req = 416 
total_req = 1280 

Dual Bus Interface Util: 
issued_total_row = 146 
issued_total_col = 1280 
Row_Bus_Util =  0.000133 
CoL_Bus_Util = 0.001164 
Either_Row_CoL_Bus_Util = 0.001199 
Issued_on_Two_Bus_Simul_Util = 0.000097 
issued_two_Eff = 0.081122 
queue_avg = 0.019174 


dram_util_bins: 0 0 0 0 0 0 0 0 0 0
dram_eff_bins: 0 0 0 0 0 0 0 0 0 0
mrqq: max=52 avg=0.0191737
Memory Partition 30: 
Cache L2_bank_060:
MSHR contents

Cache L2_bank_061:
MSHR contents

In Dram Latency Queue (total = 0): 
DRAM[30]: 16 bks, busW=16 BL=2 CL=12, tRRD=3 tCCD=1, tRCD=12 tRAS=28 tRP=12 tRC=40
n_cmd=1099633 n_nop=1098278 n_act=80 n_pre=64 n_ref_event=0 n_req=436 n_rd=144 n_rd_L2_A=0 n_write=0 n_wr_bk=1168 bw_util=0.001193
n_activity=3850 dram_eff=0.3408
bk0: 32a 1098801i bk1: 32a 1098745i bk2: 40a 1098942i bk3: 40a 1098783i bk4: 0a 1099211i bk5: 0a 1099007i bk6: 0a 1099241i bk7: 0a 1099150i bk8: 0a 1099369i bk9: 0a 1099278i bk10: 0a 1099222i bk11: 0a 1099416i bk12: 0a 1099315i bk13: 0a 1099099i bk14: 0a 1098931i bk15: 0a 1098821i 

------------------------------------------------------------------------

Row_Buffer_Locality = 0.816514
Row_Buffer_Locality_read = 0.972222
Row_Buffer_Locality_write = 0.739726
Bank_Level_Parallism = 4.334742
Bank_Level_Parallism_Col = 4.076962
Bank_Level_Parallism_Ready = 3.726372
write_to_read_ratio_blp_rw_average = 0.913354
GrpLevelPara = 2.242610 

BW Util details:
bwutil = 0.001193 
total_CMD = 1099633 
util_bw = 1312 
Wasted_Col = 666 
Wasted_Row = 152 
Idle = 1097503 

BW Util Bottlenecks: 
RCDc_limit = 48 
RCDWRc_limit = 189 
WTRc_limit = 0 
RTWc_limit = 336 
CCDLc_limit = 196 
rwq = 0 
CCDLc_limit_alone = 194 
WTRc_limit_alone = 0 
RTWc_limit_alone = 334 

Commands details: 
total_CMD = 1099633 
n_nop = 1098278 
Read = 144 
Write = 0 
L2_Alloc = 0 
L2_WB = 1168 
n_act = 80 
n_pre = 64 
n_ref = 0 
n_req = 436 
total_req = 1312 

Dual Bus Interface Util: 
issued_total_row = 144 
issued_total_col = 1312 
Row_Bus_Util =  0.000131 
CoL_Bus_Util = 0.001193 
Either_Row_CoL_Bus_Util = 0.001232 
Issued_on_Two_Bus_Simul_Util = 0.000092 
issued_two_Eff = 0.074539 
queue_avg = 0.020258 


dram_util_bins: 0 0 0 0 0 0 0 0 0 0
dram_eff_bins: 0 0 0 0 0 0 0 0 0 0
mrqq: max=51 avg=0.0202577
Memory Partition 31: 
Cache L2_bank_062:
MSHR contents

Cache L2_bank_063:
MSHR contents

In Dram Latency Queue (total = 0): 
DRAM[31]: 16 bks, busW=16 BL=2 CL=12, tRRD=3 tCCD=1, tRCD=12 tRAS=28 tRP=12 tRC=40
n_cmd=1099633 n_nop=1098287 n_act=78 n_pre=62 n_ref_event=0 n_req=436 n_rd=144 n_rd_L2_A=0 n_write=0 n_wr_bk=1168 bw_util=0.001193
n_activity=3823 dram_eff=0.3432
bk0: 32a 1098715i bk1: 32a 1098688i bk2: 40a 1098815i bk3: 40a 1098781i bk4: 0a 1099261i bk5: 0a 1099208i bk6: 0a 1099101i bk7: 0a 1099066i bk8: 0a 1099296i bk9: 0a 1099350i bk10: 0a 1099272i bk11: 0a 1099225i bk12: 0a 1099344i bk13: 0a 1099370i bk14: 0a 1098885i bk15: 0a 1098821i 

------------------------------------------------------------------------

Row_Buffer_Locality = 0.821101
Row_Buffer_Locality_read = 0.979167
Row_Buffer_Locality_write = 0.743151
Bank_Level_Parallism = 4.511561
Bank_Level_Parallism_Col = 4.202067
Bank_Level_Parallism_Ready = 3.838415
write_to_read_ratio_blp_rw_average = 0.908527
GrpLevelPara = 2.238760 

BW Util details:
bwutil = 0.001193 
total_CMD = 1099633 
util_bw = 1312 
Wasted_Col = 637 
Wasted_Row = 127 
Idle = 1097557 

BW Util Bottlenecks: 
RCDc_limit = 36 
RCDWRc_limit = 158 
WTRc_limit = 3 
RTWc_limit = 288 
CCDLc_limit = 230 
rwq = 0 
CCDLc_limit_alone = 228 
WTRc_limit_alone = 3 
RTWc_limit_alone = 286 

Commands details: 
total_CMD = 1099633 
n_nop = 1098287 
Read = 144 
Write = 0 
L2_Alloc = 0 
L2_WB = 1168 
n_act = 78 
n_pre = 62 
n_ref = 0 
n_req = 436 
total_req = 1312 

Dual Bus Interface Util: 
issued_total_row = 140 
issued_total_col = 1312 
Row_Bus_Util =  0.000127 
CoL_Bus_Util = 0.001193 
Either_Row_CoL_Bus_Util = 0.001224 
Issued_on_Two_Bus_Simul_Util = 0.000096 
issued_two_Eff = 0.078752 
queue_avg = 0.023170 


dram_util_bins: 0 0 0 0 0 0 0 0 0 0
dram_eff_bins: 0 0 0 0 0 0 0 0 0 0
mrqq: max=56 avg=0.0231695

========= L2 cache stats =========
L2_cache_bank[0]: Access = 3712, Miss = 3600, Miss_rate = 0.970, Pending_hits = 0, Reservation_fails = 0
L2_cache_bank[1]: Access = 3704, Miss = 3600, Miss_rate = 0.972, Pending_hits = 0, Reservation_fails = 0
L2_cache_bank[2]: Access = 3712, Miss = 3600, Miss_rate = 0.970, Pending_hits = 0, Reservation_fails = 0
L2_cache_bank[3]: Access = 3704, Miss = 3600, Miss_rate = 0.972, Pending_hits = 0, Reservation_fails = 0
L2_cache_bank[4]: Access = 3712, Miss = 3600, Miss_rate = 0.970, Pending_hits = 0, Reservation_fails = 0
L2_cache_bank[5]: Access = 3704, Miss = 3584, Miss_rate = 0.968, Pending_hits = 0, Reservation_fails = 0
L2_cache_bank[6]: Access = 3712, Miss = 3592, Miss_rate = 0.968, Pending_hits = 0, Reservation_fails = 0
L2_cache_bank[7]: Access = 3704, Miss = 3592, Miss_rate = 0.970, Pending_hits = 0, Reservation_fails = 0
L2_cache_bank[8]: Access = 3712, Miss = 3600, Miss_rate = 0.970, Pending_hits = 0, Reservation_fails = 0
L2_cache_bank[9]: Access = 3704, Miss = 3600, Miss_rate = 0.972, Pending_hits = 0, Reservation_fails = 0
L2_cache_bank[10]: Access = 3712, Miss = 3592, Miss_rate = 0.968, Pending_hits = 0, Reservation_fails = 0
L2_cache_bank[11]: Access = 3704, Miss = 3600, Miss_rate = 0.972, Pending_hits = 0, Reservation_fails = 0
L2_cache_bank[12]: Access = 3712, Miss = 3592, Miss_rate = 0.968, Pending_hits = 0, Reservation_fails = 0
L2_cache_bank[13]: Access = 3704, Miss = 3600, Miss_rate = 0.972, Pending_hits = 0, Reservation_fails = 0
L2_cache_bank[14]: Access = 3712, Miss = 3600, Miss_rate = 0.970, Pending_hits = 0, Reservation_fails = 0
L2_cache_bank[15]: Access = 3704, Miss = 3600, Miss_rate = 0.972, Pending_hits = 0, Reservation_fails = 0
L2_cache_bank[16]: Access = 3712, Miss = 3592, Miss_rate = 0.968, Pending_hits = 0, Reservation_fails = 0
L2_cache_bank[17]: Access = 3704, Miss = 3592, Miss_rate = 0.970, Pending_hits = 0, Reservation_fails = 0
L2_cache_bank[18]: Access = 3712, Miss = 3584, Miss_rate = 0.966, Pending_hits = 0, Reservation_fails = 0
L2_cache_bank[19]: Access = 3704, Miss = 3584, Miss_rate = 0.968, Pending_hits = 0, Reservation_fails = 0
L2_cache_bank[20]: Access = 3712, Miss = 3592, Miss_rate = 0.968, Pending_hits = 0, Reservation_fails = 0
L2_cache_bank[21]: Access = 3704, Miss = 3592, Miss_rate = 0.970, Pending_hits = 0, Reservation_fails = 0
L2_cache_bank[22]: Access = 3712, Miss = 3592, Miss_rate = 0.968, Pending_hits = 0, Reservation_fails = 0
L2_cache_bank[23]: Access = 3704, Miss = 3592, Miss_rate = 0.970, Pending_hits = 0, Reservation_fails = 0
L2_cache_bank[24]: Access = 3712, Miss = 3592, Miss_rate = 0.968, Pending_hits = 0, Reservation_fails = 0
L2_cache_bank[25]: Access = 3704, Miss = 3592, Miss_rate = 0.970, Pending_hits = 0, Reservation_fails = 0
L2_cache_bank[26]: Access = 3712, Miss = 3592, Miss_rate = 0.968, Pending_hits = 0, Reservation_fails = 0
L2_cache_bank[27]: Access = 3704, Miss = 3592, Miss_rate = 0.970, Pending_hits = 0, Reservation_fails = 0
L2_cache_bank[28]: Access = 3712, Miss = 3592, Miss_rate = 0.968, Pending_hits = 0, Reservation_fails = 0
L2_cache_bank[29]: Access = 3704, Miss = 3584, Miss_rate = 0.968, Pending_hits = 0, Reservation_fails = 0
L2_cache_bank[30]: Access = 3712, Miss = 3584, Miss_rate = 0.966, Pending_hits = 0, Reservation_fails = 0
L2_cache_bank[31]: Access = 3704, Miss = 3592, Miss_rate = 0.970, Pending_hits = 0, Reservation_fails = 0
L2_cache_bank[32]: Access = 3712, Miss = 3656, Miss_rate = 0.985, Pending_hits = 0, Reservation_fails = 0
L2_cache_bank[33]: Access = 3705, Miss = 3649, Miss_rate = 0.985, Pending_hits = 0, Reservation_fails = 0
L2_cache_bank[34]: Access = 3712, Miss = 3652, Miss_rate = 0.984, Pending_hits = 0, Reservation_fails = 0
L2_cache_bank[35]: Access = 3704, Miss = 3648, Miss_rate = 0.985, Pending_hits = 0, Reservation_fails = 0
L2_cache_bank[36]: Access = 3712, Miss = 3656, Miss_rate = 0.985, Pending_hits = 0, Reservation_fails = 0
L2_cache_bank[37]: Access = 3705, Miss = 3649, Miss_rate = 0.985, Pending_hits = 0, Reservation_fails = 0
L2_cache_bank[38]: Access = 3712, Miss = 3656, Miss_rate = 0.985, Pending_hits = 0, Reservation_fails = 0
L2_cache_bank[39]: Access = 3704, Miss = 3648, Miss_rate = 0.985, Pending_hits = 0, Reservation_fails = 0
L2_cache_bank[40]: Access = 3712, Miss = 3656, Miss_rate = 0.985, Pending_hits = 0, Reservation_fails = 0
L2_cache_bank[41]: Access = 3704, Miss = 3656, Miss_rate = 0.987, Pending_hits = 0, Reservation_fails = 0
L2_cache_bank[42]: Access = 3712, Miss = 3656, Miss_rate = 0.985, Pending_hits = 0, Reservation_fails = 0
L2_cache_bank[43]: Access = 3704, Miss = 3656, Miss_rate = 0.987, Pending_hits = 0, Reservation_fails = 0
L2_cache_bank[44]: Access = 3712, Miss = 3656, Miss_rate = 0.985, Pending_hits = 0, Reservation_fails = 0
L2_cache_bank[45]: Access = 3706, Miss = 3654, Miss_rate = 0.986, Pending_hits = 0, Reservation_fails = 0
L2_cache_bank[46]: Access = 3712, Miss = 3652, Miss_rate = 0.984, Pending_hits = 0, Reservation_fails = 0
L2_cache_bank[47]: Access = 3704, Miss = 3644, Miss_rate = 0.984, Pending_hits = 0, Reservation_fails = 0
L2_cache_bank[48]: Access = 3712, Miss = 3656, Miss_rate = 0.985, Pending_hits = 0, Reservation_fails = 0
L2_cache_bank[49]: Access = 3704, Miss = 3648, Miss_rate = 0.985, Pending_hits = 0, Reservation_fails = 0
L2_cache_bank[50]: Access = 3712, Miss = 3656, Miss_rate = 0.985, Pending_hits = 0, Reservation_fails = 0
L2_cache_bank[51]: Access = 3704, Miss = 3656, Miss_rate = 0.987, Pending_hits = 0, Reservation_fails = 0
L2_cache_bank[52]: Access = 3712, Miss = 3656, Miss_rate = 0.985, Pending_hits = 0, Reservation_fails = 0
L2_cache_bank[53]: Access = 3704, Miss = 3648, Miss_rate = 0.985, Pending_hits = 0, Reservation_fails = 0
L2_cache_bank[54]: Access = 3712, Miss = 3656, Miss_rate = 0.985, Pending_hits = 0, Reservation_fails = 0
L2_cache_bank[55]: Access = 3703, Miss = 3655, Miss_rate = 0.987, Pending_hits = 0, Reservation_fails = 0
L2_cache_bank[56]: Access = 3712, Miss = 3656, Miss_rate = 0.985, Pending_hits = 0, Reservation_fails = 0
L2_cache_bank[57]: Access = 3704, Miss = 3648, Miss_rate = 0.985, Pending_hits = 0, Reservation_fails = 0
L2_cache_bank[58]: Access = 3712, Miss = 3652, Miss_rate = 0.984, Pending_hits = 0, Reservation_fails = 0
L2_cache_bank[59]: Access = 3704, Miss = 3644, Miss_rate = 0.984, Pending_hits = 0, Reservation_fails = 0
L2_cache_bank[60]: Access = 3712, Miss = 3656, Miss_rate = 0.985, Pending_hits = 0, Reservation_fails = 0
L2_cache_bank[61]: Access = 3704, Miss = 3656, Miss_rate = 0.987, Pending_hits = 0, Reservation_fails = 0
L2_cache_bank[62]: Access = 3712, Miss = 3656, Miss_rate = 0.985, Pending_hits = 0, Reservation_fails = 0
L2_cache_bank[63]: Access = 3704, Miss = 3656, Miss_rate = 0.987, Pending_hits = 0, Reservation_fails = 0
L2_total_cache_accesses = 237315
L2_total_cache_misses = 231891
L2_total_cache_miss_rate = 0.9771
L2_total_cache_pending_hits = 0
L2_total_cache_reservation_fails = 0
L2_total_cache_breakdown:
	L2_cache_stats_breakdown[GLOBAL_ACC_R][HIT] = 5424
	L2_cache_stats_breakdown[GLOBAL_ACC_R][HIT_RESERVED] = 0
	L2_cache_stats_breakdown[GLOBAL_ACC_R][MISS] = 628
	L2_cache_stats_breakdown[GLOBAL_ACC_R][RESERVATION_FAIL] = 0
	L2_cache_stats_breakdown[GLOBAL_ACC_R][SECTOR_MISS] = 1884
	L2_cache_stats_breakdown[GLOBAL_ACC_R][MSHR_HIT] = 0
	L2_cache_stats_breakdown[LOCAL_ACC_R][HIT] = 0
	L2_cache_stats_breakdown[LOCAL_ACC_R][HIT_RESERVED] = 0
	L2_cache_stats_breakdown[LOCAL_ACC_R][MISS] = 0
	L2_cache_stats_breakdown[LOCAL_ACC_R][RESERVATION_FAIL] = 0
	L2_cache_stats_breakdown[LOCAL_ACC_R][SECTOR_MISS] = 0
	L2_cache_stats_breakdown[LOCAL_ACC_R][MSHR_HIT] = 0
	L2_cache_stats_breakdown[CONST_ACC_R][HIT] = 0
	L2_cache_stats_breakdown[CONST_ACC_R][HIT_RESERVED] = 0
	L2_cache_stats_breakdown[CONST_ACC_R][MISS] = 0
	L2_cache_stats_breakdown[CONST_ACC_R][RESERVATION_FAIL] = 0
	L2_cache_stats_breakdown[CONST_ACC_R][SECTOR_MISS] = 0
	L2_cache_stats_breakdown[CONST_ACC_R][MSHR_HIT] = 0
	L2_cache_stats_breakdown[TEXTURE_ACC_R][HIT] = 0
	L2_cache_stats_breakdown[TEXTURE_ACC_R][HIT_RESERVED] = 0
	L2_cache_stats_breakdown[TEXTURE_ACC_R][MISS] = 0
	L2_cache_stats_breakdown[TEXTURE_ACC_R][RESERVATION_FAIL] = 0
	L2_cache_stats_breakdown[TEXTURE_ACC_R][SECTOR_MISS] = 0
	L2_cache_stats_breakdown[TEXTURE_ACC_R][MSHR_HIT] = 0
	L2_cache_stats_breakdown[GLOBAL_ACC_W][HIT] = 0
	L2_cache_stats_breakdown[GLOBAL_ACC_W][HIT_RESERVED] = 0
	L2_cache_stats_breakdown[GLOBAL_ACC_W][MISS] = 57348
	L2_cache_stats_breakdown[GLOBAL_ACC_W][RESERVATION_FAIL] = 0
	L2_cache_stats_breakdown[GLOBAL_ACC_W][SECTOR_MISS] = 172031
	L2_cache_stats_breakdown[GLOBAL_ACC_W][MSHR_HIT] = 0
	L2_cache_stats_breakdown[LOCAL_ACC_W][HIT] = 0
	L2_cache_stats_breakdown[LOCAL_ACC_W][HIT_RESERVED] = 0
	L2_cache_stats_breakdown[LOCAL_ACC_W][MISS] = 0
	L2_cache_stats_breakdown[LOCAL_ACC_W][RESERVATION_FAIL] = 0
	L2_cache_stats_breakdown[LOCAL_ACC_W][SECTOR_MISS] = 0
	L2_cache_stats_breakdown[LOCAL_ACC_W][MSHR_HIT] = 0
	L2_cache_stats_breakdown[L1_WRBK_ACC][HIT] = 0
	L2_cache_stats_breakdown[L1_WRBK_ACC][HIT_RESERVED] = 0
	L2_cache_stats_breakdown[L1_WRBK_ACC][MISS] = 0
	L2_cache_stats_breakdown[L1_WRBK_ACC][RESERVATION_FAIL] = 0
	L2_cache_stats_breakdown[L1_WRBK_ACC][SECTOR_MISS] = 0
	L2_cache_stats_breakdown[L1_WRBK_ACC][MSHR_HIT] = 0
	L2_cache_stats_breakdown[L2_WRBK_ACC][HIT] = 0
	L2_cache_stats_breakdown[L2_WRBK_ACC][HIT_RESERVED] = 0
	L2_cache_stats_breakdown[L2_WRBK_ACC][MISS] = 0
	L2_cache_stats_breakdown[L2_WRBK_ACC][RESERVATION_FAIL] = 0
	L2_cache_stats_breakdown[L2_WRBK_ACC][SECTOR_MISS] = 0
	L2_cache_stats_breakdown[L2_WRBK_ACC][MSHR_HIT] = 0
	L2_cache_stats_breakdown[INST_ACC_R][HIT] = 0
	L2_cache_stats_breakdown[INST_ACC_R][HIT_RESERVED] = 0
	L2_cache_stats_breakdown[INST_ACC_R][MISS] = 0
	L2_cache_stats_breakdown[INST_ACC_R][RESERVATION_FAIL] = 0
	L2_cache_stats_breakdown[INST_ACC_R][SECTOR_MISS] = 0
	L2_cache_stats_breakdown[INST_ACC_R][MSHR_HIT] = 0
	L2_cache_stats_breakdown[L1_WR_ALLOC_R][HIT] = 0
	L2_cache_stats_breakdown[L1_WR_ALLOC_R][HIT_RESERVED] = 0
	L2_cache_stats_breakdown[L1_WR_ALLOC_R][MISS] = 0
	L2_cache_stats_breakdown[L1_WR_ALLOC_R][RESERVATION_FAIL] = 0
	L2_cache_stats_breakdown[L1_WR_ALLOC_R][SECTOR_MISS] = 0
	L2_cache_stats_breakdown[L1_WR_ALLOC_R][MSHR_HIT] = 0
	L2_cache_stats_breakdown[L2_WR_ALLOC_R][HIT] = 0
	L2_cache_stats_breakdown[L2_WR_ALLOC_R][HIT_RESERVED] = 0
	L2_cache_stats_breakdown[L2_WR_ALLOC_R][MISS] = 0
	L2_cache_stats_breakdown[L2_WR_ALLOC_R][RESERVATION_FAIL] = 0
	L2_cache_stats_breakdown[L2_WR_ALLOC_R][SECTOR_MISS] = 0
	L2_cache_stats_breakdown[L2_WR_ALLOC_R][MSHR_HIT] = 0
	L2_cache_stats_breakdown[GLOBAL_ACC_R][TOTAL_ACCESS] = 7936
	L2_cache_stats_breakdown[GLOBAL_ACC_W][TOTAL_ACCESS] = 229379
L2_total_cache_reservation_fail_breakdown:
L2_cache_data_port_util = 0.000
L2_cache_fill_port_util = 0.000

icnt_total_pkts_mem_to_simt=237315
icnt_total_pkts_simt_to_mem=237315
LD_mem_lat_dist  0 0 0 0 0 0 0 0 0 0 0 0 0 0 0 0 0 0 0 0 0 0 0 0 0 0 0
ST_mem_lat_dist  0 0 0 0 0 0 0 0 0 0 0 0 0 0 0 0 0 0 0 0 0 0 0 0 0 0 0
----------------------------Interconnect-DETAILS--------------------------------
Req_Network_injected_packets_num = 237315
Req_Network_cycles = 1871964
Req_Network_injected_packets_per_cycle =       0.1268 
Req_Network_conflicts_per_cycle =       0.1319
Req_Network_conflicts_per_cycle_util =      17.6473
Req_Bank_Level_Parallism =      16.9620
Req_Network_in_buffer_full_per_cycle =       0.0748
Req_Network_in_buffer_avg_util =       1.2338
Req_Network_out_buffer_full_per_cycle =       0.0000
Req_Network_out_buffer_avg_util =       0.0053

Reply_Network_injected_packets_num = 237315
Reply_Network_cycles = 1871964
Reply_Network_injected_packets_per_cycle =        0.1268
Reply_Network_conflicts_per_cycle =        0.0446
Reply_Network_conflicts_per_cycle_util =       5.9227
Reply_Bank_Level_Parallism =      16.8249
Reply_Network_in_buffer_full_per_cycle =       0.0000
Reply_Network_in_buffer_avg_util =       0.0043
Reply_Network_out_buffer_full_per_cycle =       0.0000
Reply_Network_out_buffer_avg_util =       0.0016
----------------------------END-of-Interconnect-DETAILS-------------------------


gpgpu_simulation_time = 0 days, 0 hrs, 10 min, 2 sec (602 sec)
gpgpu_simulation_rate = 17537 (inst/sec)
gpgpu_simulation_rate = 3109 (cycle/sec)
gpgpu_silicon_slowdown = 465422x
GPGPU-Sim: *** simulation thread exiting ***
GPGPU-Sim: *** exit detected ***
