Accel-Sim [build accelsim-commit-2260456ea5e6a1420f5734f145a4b7d8ab1d4737_modified_1.0]

        *** GPGPU-Sim Simulator Version 4.2.0  [build gpgpu-sim_git-commit-948c0e1a_modified_5.0] ***


GPGPU-Sim: Configuration options:

-save_embedded_ptx                      0 # saves ptx files embedded in binary as <n>.ptx
-keep                                   0 # keep intermediate files created by GPGPU-Sim when interfacing with external programs
-gpgpu_ptx_save_converted_ptxplus                    0 # Saved converted ptxplus to a file
-gpgpu_occupancy_sm_number                   70 # The SM number to pass to ptxas when getting register usage for computing GPU occupancy. This parameter is required in the config.
-ptx_opcode_latency_int      4,13,4,5,145,21 # Opcode latencies for integers <ADD,MAX,MUL,MAD,DIV,SHFL>Default 1,1,19,25,145,32
-ptx_opcode_latency_fp          4,13,4,5,39 # Opcode latencies for single precision floating points <ADD,MAX,MUL,MAD,DIV>Default 1,1,1,1,30
-ptx_opcode_latency_dp         8,19,8,8,330 # Opcode latencies for double precision floating points <ADD,MAX,MUL,MAD,DIV>Default 8,8,8,8,335
-ptx_opcode_latency_sfu                  100 # Opcode latencies for SFU instructionsDefault 8
-ptx_opcode_latency_tesnor                   64 # Opcode latencies for Tensor instructionsDefault 64
-ptx_opcode_initiation_int          2,2,2,2,8,4 # Opcode initiation intervals for integers <ADD,MAX,MUL,MAD,DIV,SHFL>Default 1,1,4,4,32,4
-ptx_opcode_initiation_fp            2,2,2,2,4 # Opcode initiation intervals for single precision floating points <ADD,MAX,MUL,MAD,DIV>Default 1,1,1,1,5
-ptx_opcode_initiation_dp          4,4,4,4,130 # Opcode initiation intervals for double precision floating points <ADD,MAX,MUL,MAD,DIV>Default 8,8,8,8,130
-ptx_opcode_initiation_sfu                    8 # Opcode initiation intervals for sfu instructionsDefault 8
-ptx_opcode_initiation_tensor                   64 # Opcode initiation intervals for tensor instructionsDefault 64
-cdp_latency         7200,8000,100,12000,1600 # CDP API latency <cudaStreamCreateWithFlags, cudaGetParameterBufferV2_init_perWarp, cudaGetParameterBufferV2_perKernel, cudaLaunchDeviceV2_init_perWarp, cudaLaunchDevicV2_perKernel>Default 7200,8000,100,12000,1600
-network_mode                           2 # Interconnection network mode
-inter_config_file                   mesh # Interconnection network config file
-icnt_in_buffer_limit                  512 # in_buffer_limit
-icnt_out_buffer_limit                  512 # out_buffer_limit
-icnt_subnets                           2 # subnets
-icnt_arbiter_algo                      1 # arbiter_algo
-icnt_verbose                           0 # inct_verbose
-icnt_grant_cycles                      1 # grant_cycles
-gpgpu_ptx_use_cuobjdump                    1 # Use cuobjdump to extract ptx and sass from binaries
-gpgpu_experimental_lib_support                    0 # Try to extract code from cuda libraries [Broken because of unknown cudaGetExportTable]
-checkpoint_option                      0 #  checkpointing flag (0 = no checkpoint)
-checkpoint_kernel                      1 #  checkpointing during execution of which kernel (1- 1st kernel)
-checkpoint_CTA                         0 #  checkpointing after # of CTA (< less than total CTA)
-resume_option                          0 #  resume flag (0 = no resume)
-resume_kernel                          0 #  Resume from which kernel (1= 1st kernel)
-resume_CTA                             0 #  resume from which CTA 
-checkpoint_CTA_t                       0 #  resume from which CTA 
-checkpoint_insn_Y                      0 #  resume from which CTA 
-gpgpu_ptx_convert_to_ptxplus                    0 # Convert SASS (native ISA) to ptxplus and run ptxplus
-gpgpu_ptx_force_max_capability                   70 # Force maximum compute capability
-gpgpu_ptx_inst_debug_to_file                    0 # Dump executed instructions' debug information to file
-gpgpu_ptx_inst_debug_file       inst_debug.txt # Executed instructions' debug output file
-gpgpu_ptx_inst_debug_thread_uid                    1 # Thread UID for executed instructions' debug output
-gpgpu_simd_model                       1 # 1 = post-dominator
-gpgpu_shader_core_pipeline              2048:32 # shader core pipeline config, i.e., {<nthread>:<warpsize>}
-gpgpu_tex_cache:l1  N:4:128:256,L:R:m:N:L,T:512:8,128:2 # per-shader L1 texture cache  (READ-ONLY) config  {<nsets>:<bsize>:<assoc>,<rep>:<wr>:<alloc>:<wr_alloc>,<mshr>:<N>:<merge>,<mq>:<rf>}
-gpgpu_const_cache:l1 N:128:64:8,L:R:f:N:L,S:2:64,4 # per-shader L1 constant memory cache  (READ-ONLY) config  {<nsets>:<bsize>:<assoc>,<rep>:<wr>:<alloc>:<wr_alloc>,<mshr>:<N>:<merge>,<mq>} 
-gpgpu_cache:il1     N:64:128:16,L:R:f:N:L,S:2:48,4 # shader L1 instruction cache config  {<nsets>:<bsize>:<assoc>,<rep>:<wr>:<alloc>:<wr_alloc>,<mshr>:<N>:<merge>,<mq>} 
-gpgpu_cache:dl1     S:4:128:64,L:T:m:L:L,A:512:8,16:0,32 # per-shader L1 data cache config  {<nsets>:<bsize>:<assoc>,<rep>:<wr>:<alloc>:<wr_alloc>,<mshr>:<N>:<merge>,<mq> | none}
-gpgpu_l1_cache_write_ratio                   25 # L1D write ratio
-gpgpu_l1_banks                         4 # The number of L1 cache banks
-gpgpu_l1_banks_byte_interleaving                   32 # l1 banks byte interleaving granularity
-gpgpu_l1_banks_hashing_function                    0 # l1 banks hashing function
-gpgpu_l1_latency                      20 # L1 Hit Latency
-gpgpu_smem_latency                    20 # smem Latency
-gpgpu_cache:dl1PrefL1                 none # per-shader L1 data cache config  {<nsets>:<bsize>:<assoc>,<rep>:<wr>:<alloc>:<wr_alloc>,<mshr>:<N>:<merge>,<mq> | none}
-gpgpu_cache:dl1PrefShared                 none # per-shader L1 data cache config  {<nsets>:<bsize>:<assoc>,<rep>:<wr>:<alloc>:<wr_alloc>,<mshr>:<N>:<merge>,<mq> | none}
-gpgpu_gmem_skip_L1D                    0 # global memory access skip L1D cache (implements -Xptxas -dlcm=cg, default=no skip)
-gpgpu_perfect_mem                      0 # enable perfect memory mode (no cache miss)
-n_regfile_gating_group                    4 # group of lanes that should be read/written together)
-gpgpu_clock_gated_reg_file                    0 # enable clock gated reg file for power calculations
-gpgpu_clock_gated_lanes                    1 # enable clock gated lanes for power calculations
-gpgpu_shader_registers                65536 # Number of registers per shader core. Limits number of concurrent CTAs. (default 8192)
-gpgpu_registers_per_block                65536 # Maximum number of registers per CTA. (default 8192)
-gpgpu_ignore_resources_limitation                    0 # gpgpu_ignore_resources_limitation (default 0)
-gpgpu_shader_cta                      32 # Maximum number of concurrent CTAs in shader (default 32)
-gpgpu_num_cta_barriers                   16 # Maximum number of named barriers per CTA (default 16)
-gpgpu_n_clusters                      80 # number of processing clusters
-gpgpu_n_cores_per_cluster                    1 # number of simd cores per cluster
-gpgpu_n_cluster_ejection_buffer_size                   32 # number of packets in ejection buffer
-gpgpu_n_ldst_response_buffer_size                    2 # number of response packets in ld/st unit ejection buffer
-gpgpu_shmem_per_block                65536 # Size of shared memory per thread block or CTA (default 48kB)
-gpgpu_shmem_size                   98304 # Size of shared memory per shader core (default 16kB)
-gpgpu_shmem_option       0,8,16,32,64,96 # Option list of shared memory sizes
-gpgpu_unified_l1d_size                  128 # Size of unified data cache(L1D + shared memory) in KB
-gpgpu_adaptive_cache_config                    1 # adaptive_cache_config
-gpgpu_shmem_sizeDefault                98304 # Size of shared memory per shader core (default 16kB)
-gpgpu_shmem_size_PrefL1                16384 # Size of shared memory per shader core (default 16kB)
-gpgpu_shmem_size_PrefShared                16384 # Size of shared memory per shader core (default 16kB)
-gpgpu_shmem_num_banks                   32 # Number of banks in the shared memory in each shader core (default 16)
-gpgpu_shmem_limited_broadcast                    0 # Limit shared memory to do one broadcast per cycle (default on)
-gpgpu_shmem_warp_parts                    1 # Number of portions a warp is divided into for shared memory bank conflict check 
-gpgpu_mem_unit_ports                    1 # The number of memory transactions allowed per core cycle
-gpgpu_shmem_warp_parts                    1 # Number of portions a warp is divided into for shared memory bank conflict check 
-gpgpu_warpdistro_shader                   -1 # Specify which shader core to collect the warp size distribution from
-gpgpu_warp_issue_shader                    0 # Specify which shader core to collect the warp issue distribution from
-gpgpu_local_mem_map                    1 # Mapping from local memory space address to simulated GPU physical address space (default = enabled)
-gpgpu_num_reg_banks                   16 # Number of register banks (default = 8)
-gpgpu_reg_bank_use_warp_id                    0 # Use warp ID in mapping registers to banks (default = off)
-gpgpu_sub_core_model                    1 # Sub Core Volta/Pascal model (default = off)
-gpgpu_enable_specialized_operand_collector                    0 # enable_specialized_operand_collector
-gpgpu_operand_collector_num_units_sp                    4 # number of collector units (default = 4)
-gpgpu_operand_collector_num_units_dp                    0 # number of collector units (default = 0)
-gpgpu_operand_collector_num_units_sfu                    4 # number of collector units (default = 4)
-gpgpu_operand_collector_num_units_int                    0 # number of collector units (default = 0)
-gpgpu_operand_collector_num_units_tensor_core                    4 # number of collector units (default = 4)
-gpgpu_operand_collector_num_units_mem                    2 # number of collector units (default = 2)
-gpgpu_operand_collector_num_units_gen                    8 # number of collector units (default = 0)
-gpgpu_operand_collector_num_in_ports_sp                    1 # number of collector unit in ports (default = 1)
-gpgpu_operand_collector_num_in_ports_dp                    0 # number of collector unit in ports (default = 0)
-gpgpu_operand_collector_num_in_ports_sfu                    1 # number of collector unit in ports (default = 1)
-gpgpu_operand_collector_num_in_ports_int                    0 # number of collector unit in ports (default = 0)
-gpgpu_operand_collector_num_in_ports_tensor_core                    1 # number of collector unit in ports (default = 1)
-gpgpu_operand_collector_num_in_ports_mem                    1 # number of collector unit in ports (default = 1)
-gpgpu_operand_collector_num_in_ports_gen                    8 # number of collector unit in ports (default = 0)
-gpgpu_operand_collector_num_out_ports_sp                    1 # number of collector unit in ports (default = 1)
-gpgpu_operand_collector_num_out_ports_dp                    0 # number of collector unit in ports (default = 0)
-gpgpu_operand_collector_num_out_ports_sfu                    1 # number of collector unit in ports (default = 1)
-gpgpu_operand_collector_num_out_ports_int                    0 # number of collector unit in ports (default = 0)
-gpgpu_operand_collector_num_out_ports_tensor_core                    1 # number of collector unit in ports (default = 1)
-gpgpu_operand_collector_num_out_ports_mem                    1 # number of collector unit in ports (default = 1)
-gpgpu_operand_collector_num_out_ports_gen                    8 # number of collector unit in ports (default = 0)
-gpgpu_coalesce_arch                   70 # Coalescing arch (GT200 = 13, Fermi = 20)
-gpgpu_num_sched_per_core                    4 # Number of warp schedulers per core
-gpgpu_max_insn_issue_per_warp                    1 # Max number of instructions that can be issued per warp in one cycle by scheduler (either 1 or 2)
-gpgpu_dual_issue_diff_exec_units                    1 # should dual issue use two different execution unit resources (Default = 1)
-gpgpu_simt_core_sim_order                    1 # Select the simulation order of cores in a cluster (0=Fix, 1=Round-Robin)
-gpgpu_pipeline_widths 4,4,4,4,4,4,4,4,4,4,8,4,4 # Pipeline widths ID_OC_SP,ID_OC_DP,ID_OC_INT,ID_OC_SFU,ID_OC_MEM,OC_EX_SP,OC_EX_DP,OC_EX_INT,OC_EX_SFU,OC_EX_MEM,EX_WB,ID_OC_TENSOR_CORE,OC_EX_TENSOR_CORE
-gpgpu_tensor_core_avail                    1 # Tensor Core Available (default=0)
-gpgpu_num_sp_units                     4 # Number of SP units (default=1)
-gpgpu_num_dp_units                     4 # Number of DP units (default=0)
-gpgpu_num_int_units                    4 # Number of INT units (default=0)
-gpgpu_num_sfu_units                    4 # Number of SF units (default=1)
-gpgpu_num_tensor_core_units                    4 # Number of tensor_core units (default=1)
-gpgpu_num_mem_units                    1 # Number if ldst units (default=1) WARNING: not hooked up to anything
-gpgpu_scheduler                      lrr # Scheduler configuration: < lrr | gto | two_level_active > If two_level_active:<num_active_warps>:<inner_prioritization>:<outer_prioritization>For complete list of prioritization values see shader.h enum scheduler_prioritization_typeDefault: gto
-gpgpu_concurrent_kernel_sm                    0 # Support concurrent kernels on a SM (default = disabled)
-gpgpu_perfect_inst_const_cache                    1 # perfect inst and const cache mode, so all inst and const hits in the cache(default = disabled)
-gpgpu_inst_fetch_throughput                    4 # the number of fetched intruction per warp each cycle
-gpgpu_reg_file_port_throughput                    2 # the number ports of the register file
-specialized_unit_1         1,4,4,4,4,BRA # specialized unit config {<enabled>,<num_units>:<latency>:<initiation>,<ID_OC_SPEC>:<OC_EX_SPEC>,<NAME>}
-specialized_unit_2       1,4,200,4,4,TEX # specialized unit config {<enabled>,<num_units>:<latency>:<initiation>,<ID_OC_SPEC>:<OC_EX_SPEC>,<NAME>}
-specialized_unit_3      1,4,8,4,4,TENSOR # specialized unit config {<enabled>,<num_units>:<latency>:<initiation>,<ID_OC_SPEC>:<OC_EX_SPEC>,<NAME>}
-specialized_unit_4         0,4,4,4,4,BRA # specialized unit config {<enabled>,<num_units>:<latency>:<initiation>,<ID_OC_SPEC>:<OC_EX_SPEC>,<NAME>}
-specialized_unit_5         0,4,4,4,4,BRA # specialized unit config {<enabled>,<num_units>:<latency>:<initiation>,<ID_OC_SPEC>:<OC_EX_SPEC>,<NAME>}
-specialized_unit_6         0,4,4,4,4,BRA # specialized unit config {<enabled>,<num_units>:<latency>:<initiation>,<ID_OC_SPEC>:<OC_EX_SPEC>,<NAME>}
-specialized_unit_7         0,4,4,4,4,BRA # specialized unit config {<enabled>,<num_units>:<latency>:<initiation>,<ID_OC_SPEC>:<OC_EX_SPEC>,<NAME>}
-specialized_unit_8         0,4,4,4,4,BRA # specialized unit config {<enabled>,<num_units>:<latency>:<initiation>,<ID_OC_SPEC>:<OC_EX_SPEC>,<NAME>}
-gpgpu_perf_sim_memcpy                    1 # Fill the L2 cache on memcpy
-gpgpu_simple_dram_model                    0 # simple_dram_model with fixed latency and BW
-gpgpu_dram_scheduler                    1 # 0 = fifo, 1 = FR-FCFS (defaul)
-gpgpu_dram_partition_queues          64:64:64:64 # i2$:$2d:d2$:$2i
-l2_ideal                               0 # Use a ideal L2 cache that always hit
-gpgpu_cache:dl2     S:32:128:24,L:B:m:L:P,A:192:4,32:0,32 # unified banked L2 data cache config  {<nsets>:<bsize>:<assoc>,<rep>:<wr>:<alloc>:<wr_alloc>,<mshr>:<N>:<merge>,<mq>}
-gpgpu_cache:dl2_texture_only                    0 # L2 cache used for texture only
-gpgpu_n_mem                           32 # number of memory modules (e.g. memory controllers) in gpu
-gpgpu_n_sub_partition_per_mchannel                    2 # number of memory subpartition in each memory module
-gpgpu_n_mem_per_ctrlr                    1 # number of memory chips per memory controller
-gpgpu_memlatency_stat                   14 # track and display latency statistics 0x2 enables MC, 0x4 enables queue logs
-gpgpu_frfcfs_dram_sched_queue_size                   64 # 0 = unlimited (default); # entries per chip
-gpgpu_dram_return_queue_size                  192 # 0 = unlimited (default); # entries per chip
-gpgpu_dram_buswidth                   16 # default = 4 bytes (8 bytes per cycle at DDR)
-gpgpu_dram_burst_length                    2 # Burst length of each DRAM request (default = 4 data bus cycle)
-dram_data_command_freq_ratio                    2 # Frequency ratio between DRAM data bus and command bus (default = 2 times, i.e. DDR)
-gpgpu_dram_timing_opt nbk=16:CCD=1:RRD=3:RCD=12:RAS=28:RP=12:RC=40: CL=12:WL=2:CDLR=3:WR=10:nbkgrp=4:CCDL=2:RTPL=3 # DRAM timing parameters = {nbk:tCCD:tRRD:tRCD:tRAS:tRP:tRC:CL:WL:tCDLR:tWR:nbkgrp:tCCDL:tRTPL}
-gpgpu_l2_rop_latency                  160 # ROP queue latency (default 85)
-dram_latency                         100 # DRAM latency (default 30)
-dram_dual_bus_interface                    1 # dual_bus_interface (default = 0) 
-dram_bnk_indexing_policy                    0 # dram_bnk_indexing_policy (0 = normal indexing, 1 = Xoring with the higher bits) (Default = 0)
-dram_bnkgrp_indexing_policy                    1 # dram_bnkgrp_indexing_policy (0 = take higher bits, 1 = take lower bits) (Default = 0)
-dram_seperate_write_queue_enable                    0 # Seperate_Write_Queue_Enable
-dram_write_queue_size             32:28:16 # Write_Queue_Size
-dram_elimnate_rw_turnaround                    0 # elimnate_rw_turnaround i.e set tWTR and tRTW = 0
-icnt_flit_size                        40 # icnt_flit_size
-gpgpu_mem_addr_mapping dramid@8;00000000.00000000.00000000.00000000.0000RRRR.RRRRRRRR.RBBBCCCB.CCCSSSSS # mapping memory address to dram model {dramid@<start bit>;<memory address map>}
-gpgpu_mem_addr_test                    0 # run sweep test to check address mapping for aliased address
-gpgpu_mem_address_mask                    1 # 0 = old addressing mask, 1 = new addressing mask, 2 = new add. mask + flipped bank sel and chip sel bits
-gpgpu_memory_partition_indexing                    2 # 0 = no indexing, 1 = bitwise xoring, 2 = IPoly, 3 = custom indexing
-accelwattch_xml_file accelwattch_sass_sim.xml # AccelWattch XML file
-power_simulation_enabled                    0 # Turn on power simulator (1=On, 0=Off)
-power_per_cycle_dump                    0 # Dump detailed power output each cycle
-hw_perf_file_name            hw_perf.csv # Hardware Performance Statistics file
-hw_perf_bench_name                       # Kernel Name in Hardware Performance Statistics file
-power_simulation_mode                    0 # Switch performance counter input for power simulation (0=Sim, 1=HW, 2=HW-Sim Hybrid)
-dvfs_enabled                           0 # Turn on DVFS for power model
-aggregate_power_stats                    0 # Accumulate power across all kernels
-accelwattch_hybrid_perfsim_L1_RH                    0 # Get L1 Read Hits for Accelwattch-Hybrid from Accel-Sim
-accelwattch_hybrid_perfsim_L1_RM                    0 # Get L1 Read Misses for Accelwattch-Hybrid from Accel-Sim
-accelwattch_hybrid_perfsim_L1_WH                    0 # Get L1 Write Hits for Accelwattch-Hybrid from Accel-Sim
-accelwattch_hybrid_perfsim_L1_WM                    0 # Get L1 Write Misses for Accelwattch-Hybrid from Accel-Sim
-accelwattch_hybrid_perfsim_L2_RH                    0 # Get L2 Read Hits for Accelwattch-Hybrid from Accel-Sim
-accelwattch_hybrid_perfsim_L2_RM                    0 # Get L2 Read Misses for Accelwattch-Hybrid from Accel-Sim
-accelwattch_hybrid_perfsim_L2_WH                    0 # Get L2 Write Hits for Accelwattch-Hybrid from Accel-Sim
-accelwattch_hybrid_perfsim_L2_WM                    0 # Get L2 Write Misses for Accelwattch-Hybrid from Accel-Sim
-accelwattch_hybrid_perfsim_CC_ACC                    0 # Get Constant Cache Acesses for Accelwattch-Hybrid from Accel-Sim
-accelwattch_hybrid_perfsim_SHARED_ACC                    0 # Get Shared Memory Acesses for Accelwattch-Hybrid from Accel-Sim
-accelwattch_hybrid_perfsim_DRAM_RD                    0 # Get DRAM Reads for Accelwattch-Hybrid from Accel-Sim
-accelwattch_hybrid_perfsim_DRAM_WR                    0 # Get DRAM Writes for Accelwattch-Hybrid from Accel-Sim
-accelwattch_hybrid_perfsim_NOC                    0 # Get Interconnect Acesses for Accelwattch-Hybrid from Accel-Sim
-accelwattch_hybrid_perfsim_PIPE_DUTY                    0 # Get Pipeline Duty Cycle Acesses for Accelwattch-Hybrid from Accel-Sim
-accelwattch_hybrid_perfsim_NUM_SM_IDLE                    0 # Get Number of Idle SMs for Accelwattch-Hybrid from Accel-Sim
-accelwattch_hybrid_perfsim_CYCLES                    0 # Get Executed Cycles for Accelwattch-Hybrid from Accel-Sim
-accelwattch_hybrid_perfsim_VOLTAGE                    0 # Get Chip Voltage for Accelwattch-Hybrid from Accel-Sim
-power_trace_enabled                    0 # produce a file for the power trace (1=On, 0=Off)
-power_trace_zlevel                     6 # Compression level of the power trace output log (0=no comp, 9=highest)
-steady_power_levels_enabled                    0 # produce a file for the steady power levels (1=On, 0=Off)
-steady_state_definition                  8:4 # allowed deviation:number of samples
-gpgpu_max_cycle                        0 # terminates gpu simulation early (0 = no limit)
-gpgpu_max_insn                         0 # terminates gpu simulation early (0 = no limit)
-gpgpu_max_cta                          0 # terminates gpu simulation early (0 = no limit)
-gpgpu_max_completed_cta                    0 # terminates gpu simulation early (0 = no limit)
-gpgpu_runtime_stat                   500 # display runtime statistics such as dram utilization {<freq>:<flag>}
-liveness_message_freq                    1 # Minimum number of seconds between simulation liveness messages (0 = always print)
-gpgpu_compute_capability_major                    7 # Major compute capability version number
-gpgpu_compute_capability_minor                    0 # Minor compute capability version number
-gpgpu_flush_l1_cache                    1 # Flush L1 cache at the end of each kernel call
-gpgpu_flush_l2_cache                    0 # Flush L2 cache at the end of each kernel call
-gpgpu_deadlock_detect                    1 # Stop the simulation at deadlock (1=on (default), 0=off)
-gpgpu_ptx_instruction_classification                    0 # if enabled will classify ptx instruction types per kernel (Max 255 kernels now)
-gpgpu_ptx_sim_mode                     0 # Select between Performance (default) or Functional simulation (1)
-gpgpu_clock_domains 1447.0:1447.0:1447.0:850.0 # Clock Domain Frequencies in MhZ {<Core Clock>:<ICNT Clock>:<L2 Clock>:<DRAM Clock>}
-gpgpu_max_concurrent_kernel                  128 # maximum kernels that can run concurrently on GPU, set this value according to max resident grids for your compute capability
-gpgpu_cflog_interval                    0 # Interval between each snapshot in control flow logger
-visualizer_enabled                     0 # Turn on visualizer output (1=On, 0=Off)
-visualizer_outputfile                 NULL # Specifies the output log file for visualizer
-visualizer_zlevel                      6 # Compression level of the visualizer output log (0=no comp, 9=highest)
-gpgpu_stack_size_limit                 1024 # GPU thread stack size
-gpgpu_heap_size_limit              8388608 # GPU malloc heap size 
-gpgpu_runtime_sync_depth_limit                    2 # GPU device runtime synchronize depth
-gpgpu_runtime_pending_launch_count_limit                 2048 # GPU device runtime pending launch count
-trace_enabled                          0 # Turn on traces
-trace_components                    none # comma seperated list of traces to enable. Complete list found in trace_streams.tup. Default none
-trace_sampling_core                    0 # The core which is printed using CORE_DPRINTF. Default 0
-trace_sampling_memory_partition                   -1 # The memory partition which is printed using MEMPART_DPRINTF. Default -1 (i.e. all)
-enable_ptx_file_line_stats                    1 # Turn on PTX source line statistic profiling. (1 = On)
-ptx_line_stats_filename gpgpu_inst_stats.txt # Output file for PTX source line statistics.
-gpgpu_kernel_launch_latency                 5000 # Kernel launch latency in cycles. Default: 0
-gpgpu_cdp_enabled                      0 # Turn on CDP
-gpgpu_TB_launch_latency                    0 # thread block launch latency in cycles. Default: 0
-trace               ./hw_run/rodinia_2.0-ft/9.1/backprop-rodinia-2.0-ft/4096___data_result_4096_txt/traces/kernelslist.g # traces kernel filetraces kernel file directory
-trace_opcode_latency_initiation_int                  2,2 # Opcode latencies and initiation for integers in trace driven mode <latency,initiation>
-trace_opcode_latency_initiation_sp                  2,2 # Opcode latencies and initiation for sp in trace driven mode <latency,initiation>
-trace_opcode_latency_initiation_dp                  8,4 # Opcode latencies and initiation for dp in trace driven mode <latency,initiation>
-trace_opcode_latency_initiation_sfu                 20,8 # Opcode latencies and initiation for sfu in trace driven mode <latency,initiation>
-trace_opcode_latency_initiation_tensor                  2,2 # Opcode latencies and initiation for tensor in trace driven mode <latency,initiation>
-trace_opcode_latency_initiation_spec_op_1                  4,4 # specialized unit config <latency,initiation>
-trace_opcode_latency_initiation_spec_op_2                200,4 # specialized unit config <latency,initiation>
-trace_opcode_latency_initiation_spec_op_3                  2,2 # specialized unit config <latency,initiation>
-trace_opcode_latency_initiation_spec_op_4                  4,4 # specialized unit config <latency,initiation>
-trace_opcode_latency_initiation_spec_op_5                  4,4 # specialized unit config <latency,initiation>
-trace_opcode_latency_initiation_spec_op_6                  4,4 # specialized unit config <latency,initiation>
-trace_opcode_latency_initiation_spec_op_7                  4,4 # specialized unit config <latency,initiation>
-trace_opcode_latency_initiation_spec_op_8                  4,4 # specialized unit config <latency,initiation>
DRAM Timing Options:
nbk                                    16 # number of banks
CCD                                     1 # column to column delay
RRD                                     3 # minimal delay between activation of rows in different banks
RCD                                    12 # row to column delay
RAS                                    28 # time needed to activate row
RP                                     12 # time needed to precharge (deactivate) row
RC                                     40 # row cycle time
CDLR                                    3 # switching from write to read (changes tWTR)
WR                                     10 # last data-in to row precharge
CL                                     12 # CAS latency
WL                                      2 # Write latency
nbkgrp                                  4 # number of bank groups
CCDL                                    2 # column to column delay between accesses to different bank groups
RTPL                                    3 # read to precharge delay between accesses to different bank groups
Total number of memory sub partition = 64
addr_dec_mask[CHIP]  = 0000000000001f00 	high:13 low:8
addr_dec_mask[BK]    = 00000000000e2000 	high:20 low:13
addr_dec_mask[ROW]   = 00000001fff00000 	high:33 low:20
addr_dec_mask[COL]   = 000000000001c0ff 	high:17 low:0
addr_dec_mask[BURST] = 000000000000001f 	high:5 low:0
sub_partition_id_mask = 0000000000002000
GPGPU-Sim uArch: clock freqs: 1447000000.000000:1447000000.000000:1447000000.000000:850000000.000000
GPGPU-Sim uArch: clock periods: 0.00000000069108500346:0.00000000069108500346:0.00000000069108500346:0.00000000117647058824
*** Initializing Memory Statistics ***
GPGPU-Sim uArch: performance model initialization complete.
launching memcpy command : MemcpyHtoD,0x00007f35ab700000,16388
launching memcpy command : MemcpyHtoD,0x00007f35ab704400,278596
Processing kernel ./hw_run/rodinia_2.0-ft/9.1/backprop-rodinia-2.0-ft/4096___data_result_4096_txt/traces/kernel-1.traceg
-kernel name = _Z22bpnn_layerforward_CUDAPfS_S_S_ii
-kernel id = 1
-grid dim = (1,256,1)
-block dim = (16,16,1)
-shmem = 1088
-nregs = 19
-binary version = 70
-cuda stream id = 0
Header info loaded for kernel command : ./hw_run/rodinia_2.0-ft/9.1/backprop-rodinia-2.0-ft/4096___data_result_4096_txt/traces/kernel-1.traceg
launching kernel name: _Z22bpnn_layerforward_CUDAPfS_S_S_ii uid: 1
GPGPU-Sim uArch: Shader 0 bind to kernel 1 '_Z22bpnn_layerforward_CUDAPfS_S_S_ii'
GPGPU-Sim uArch: CTA/core = 8, limited by: threads
GPGPU-Sim: Reconfigure L1 cache to 120KB
thread block = 0,0,0
GPGPU-Sim uArch: Shader 1 bind to kernel 1 '_Z22bpnn_layerforward_CUDAPfS_S_S_ii'
thread block = 0,1,0
GPGPU-Sim uArch: Shader 2 bind to kernel 1 '_Z22bpnn_layerforward_CUDAPfS_S_S_ii'
thread block = 0,2,0
GPGPU-Sim uArch: Shader 3 bind to kernel 1 '_Z22bpnn_layerforward_CUDAPfS_S_S_ii'
thread block = 0,3,0
GPGPU-Sim uArch: Shader 4 bind to kernel 1 '_Z22bpnn_layerforward_CUDAPfS_S_S_ii'
thread block = 0,4,0
GPGPU-Sim uArch: Shader 5 bind to kernel 1 '_Z22bpnn_layerforward_CUDAPfS_S_S_ii'
thread block = 0,5,0
GPGPU-Sim uArch: Shader 6 bind to kernel 1 '_Z22bpnn_layerforward_CUDAPfS_S_S_ii'
thread block = 0,6,0
GPGPU-Sim uArch: Shader 7 bind to kernel 1 '_Z22bpnn_layerforward_CUDAPfS_S_S_ii'
thread block = 0,7,0
GPGPU-Sim uArch: Shader 8 bind to kernel 1 '_Z22bpnn_layerforward_CUDAPfS_S_S_ii'
thread block = 0,8,0
GPGPU-Sim uArch: Shader 9 bind to kernel 1 '_Z22bpnn_layerforward_CUDAPfS_S_S_ii'
thread block = 0,9,0
GPGPU-Sim uArch: Shader 10 bind to kernel 1 '_Z22bpnn_layerforward_CUDAPfS_S_S_ii'
thread block = 0,10,0
GPGPU-Sim uArch: Shader 11 bind to kernel 1 '_Z22bpnn_layerforward_CUDAPfS_S_S_ii'
thread block = 0,11,0
GPGPU-Sim uArch: Shader 12 bind to kernel 1 '_Z22bpnn_layerforward_CUDAPfS_S_S_ii'
thread block = 0,12,0
GPGPU-Sim uArch: Shader 13 bind to kernel 1 '_Z22bpnn_layerforward_CUDAPfS_S_S_ii'
thread block = 0,13,0
GPGPU-Sim uArch: Shader 14 bind to kernel 1 '_Z22bpnn_layerforward_CUDAPfS_S_S_ii'
thread block = 0,14,0
GPGPU-Sim uArch: Shader 15 bind to kernel 1 '_Z22bpnn_layerforward_CUDAPfS_S_S_ii'
thread block = 0,15,0
GPGPU-Sim uArch: Shader 16 bind to kernel 1 '_Z22bpnn_layerforward_CUDAPfS_S_S_ii'
thread block = 0,16,0
GPGPU-Sim uArch: Shader 17 bind to kernel 1 '_Z22bpnn_layerforward_CUDAPfS_S_S_ii'
thread block = 0,17,0
GPGPU-Sim uArch: Shader 18 bind to kernel 1 '_Z22bpnn_layerforward_CUDAPfS_S_S_ii'
thread block = 0,18,0
GPGPU-Sim uArch: Shader 19 bind to kernel 1 '_Z22bpnn_layerforward_CUDAPfS_S_S_ii'
thread block = 0,19,0
GPGPU-Sim uArch: Shader 20 bind to kernel 1 '_Z22bpnn_layerforward_CUDAPfS_S_S_ii'
thread block = 0,20,0
GPGPU-Sim uArch: Shader 21 bind to kernel 1 '_Z22bpnn_layerforward_CUDAPfS_S_S_ii'
thread block = 0,21,0
GPGPU-Sim uArch: Shader 22 bind to kernel 1 '_Z22bpnn_layerforward_CUDAPfS_S_S_ii'
thread block = 0,22,0
GPGPU-Sim uArch: Shader 23 bind to kernel 1 '_Z22bpnn_layerforward_CUDAPfS_S_S_ii'
thread block = 0,23,0
GPGPU-Sim uArch: Shader 24 bind to kernel 1 '_Z22bpnn_layerforward_CUDAPfS_S_S_ii'
thread block = 0,24,0
GPGPU-Sim uArch: Shader 25 bind to kernel 1 '_Z22bpnn_layerforward_CUDAPfS_S_S_ii'
thread block = 0,25,0
GPGPU-Sim uArch: Shader 26 bind to kernel 1 '_Z22bpnn_layerforward_CUDAPfS_S_S_ii'
thread block = 0,26,0
GPGPU-Sim uArch: Shader 27 bind to kernel 1 '_Z22bpnn_layerforward_CUDAPfS_S_S_ii'
thread block = 0,27,0
GPGPU-Sim uArch: Shader 28 bind to kernel 1 '_Z22bpnn_layerforward_CUDAPfS_S_S_ii'
thread block = 0,28,0
GPGPU-Sim uArch: Shader 29 bind to kernel 1 '_Z22bpnn_layerforward_CUDAPfS_S_S_ii'
thread block = 0,29,0
GPGPU-Sim uArch: Shader 30 bind to kernel 1 '_Z22bpnn_layerforward_CUDAPfS_S_S_ii'
thread block = 0,30,0
GPGPU-Sim uArch: Shader 31 bind to kernel 1 '_Z22bpnn_layerforward_CUDAPfS_S_S_ii'
thread block = 0,31,0
GPGPU-Sim uArch: Shader 32 bind to kernel 1 '_Z22bpnn_layerforward_CUDAPfS_S_S_ii'
thread block = 0,32,0
GPGPU-Sim uArch: Shader 33 bind to kernel 1 '_Z22bpnn_layerforward_CUDAPfS_S_S_ii'
thread block = 0,33,0
GPGPU-Sim uArch: Shader 34 bind to kernel 1 '_Z22bpnn_layerforward_CUDAPfS_S_S_ii'
thread block = 0,34,0
GPGPU-Sim uArch: Shader 35 bind to kernel 1 '_Z22bpnn_layerforward_CUDAPfS_S_S_ii'
thread block = 0,35,0
GPGPU-Sim uArch: Shader 36 bind to kernel 1 '_Z22bpnn_layerforward_CUDAPfS_S_S_ii'
thread block = 0,36,0
GPGPU-Sim uArch: Shader 37 bind to kernel 1 '_Z22bpnn_layerforward_CUDAPfS_S_S_ii'
thread block = 0,37,0
GPGPU-Sim uArch: Shader 38 bind to kernel 1 '_Z22bpnn_layerforward_CUDAPfS_S_S_ii'
thread block = 0,38,0
GPGPU-Sim uArch: Shader 39 bind to kernel 1 '_Z22bpnn_layerforward_CUDAPfS_S_S_ii'
thread block = 0,39,0
GPGPU-Sim uArch: Shader 40 bind to kernel 1 '_Z22bpnn_layerforward_CUDAPfS_S_S_ii'
thread block = 0,40,0
GPGPU-Sim uArch: Shader 41 bind to kernel 1 '_Z22bpnn_layerforward_CUDAPfS_S_S_ii'
thread block = 0,41,0
GPGPU-Sim uArch: Shader 42 bind to kernel 1 '_Z22bpnn_layerforward_CUDAPfS_S_S_ii'
thread block = 0,42,0
GPGPU-Sim uArch: Shader 43 bind to kernel 1 '_Z22bpnn_layerforward_CUDAPfS_S_S_ii'
thread block = 0,43,0
GPGPU-Sim uArch: Shader 44 bind to kernel 1 '_Z22bpnn_layerforward_CUDAPfS_S_S_ii'
thread block = 0,44,0
GPGPU-Sim uArch: Shader 45 bind to kernel 1 '_Z22bpnn_layerforward_CUDAPfS_S_S_ii'
thread block = 0,45,0
GPGPU-Sim uArch: Shader 46 bind to kernel 1 '_Z22bpnn_layerforward_CUDAPfS_S_S_ii'
thread block = 0,46,0
GPGPU-Sim uArch: Shader 47 bind to kernel 1 '_Z22bpnn_layerforward_CUDAPfS_S_S_ii'
thread block = 0,47,0
GPGPU-Sim uArch: Shader 48 bind to kernel 1 '_Z22bpnn_layerforward_CUDAPfS_S_S_ii'
thread block = 0,48,0
GPGPU-Sim uArch: Shader 49 bind to kernel 1 '_Z22bpnn_layerforward_CUDAPfS_S_S_ii'
thread block = 0,49,0
GPGPU-Sim uArch: Shader 50 bind to kernel 1 '_Z22bpnn_layerforward_CUDAPfS_S_S_ii'
thread block = 0,50,0
GPGPU-Sim uArch: Shader 51 bind to kernel 1 '_Z22bpnn_layerforward_CUDAPfS_S_S_ii'
thread block = 0,51,0
GPGPU-Sim uArch: Shader 52 bind to kernel 1 '_Z22bpnn_layerforward_CUDAPfS_S_S_ii'
thread block = 0,52,0
GPGPU-Sim uArch: Shader 53 bind to kernel 1 '_Z22bpnn_layerforward_CUDAPfS_S_S_ii'
thread block = 0,53,0
GPGPU-Sim uArch: Shader 54 bind to kernel 1 '_Z22bpnn_layerforward_CUDAPfS_S_S_ii'
thread block = 0,54,0
GPGPU-Sim uArch: Shader 55 bind to kernel 1 '_Z22bpnn_layerforward_CUDAPfS_S_S_ii'
thread block = 0,55,0
GPGPU-Sim uArch: Shader 56 bind to kernel 1 '_Z22bpnn_layerforward_CUDAPfS_S_S_ii'
thread block = 0,56,0
GPGPU-Sim uArch: Shader 57 bind to kernel 1 '_Z22bpnn_layerforward_CUDAPfS_S_S_ii'
thread block = 0,57,0
GPGPU-Sim uArch: Shader 58 bind to kernel 1 '_Z22bpnn_layerforward_CUDAPfS_S_S_ii'
thread block = 0,58,0
GPGPU-Sim uArch: Shader 59 bind to kernel 1 '_Z22bpnn_layerforward_CUDAPfS_S_S_ii'
thread block = 0,59,0
GPGPU-Sim uArch: Shader 60 bind to kernel 1 '_Z22bpnn_layerforward_CUDAPfS_S_S_ii'
thread block = 0,60,0
GPGPU-Sim uArch: Shader 61 bind to kernel 1 '_Z22bpnn_layerforward_CUDAPfS_S_S_ii'
thread block = 0,61,0
GPGPU-Sim uArch: Shader 62 bind to kernel 1 '_Z22bpnn_layerforward_CUDAPfS_S_S_ii'
thread block = 0,62,0
GPGPU-Sim uArch: Shader 63 bind to kernel 1 '_Z22bpnn_layerforward_CUDAPfS_S_S_ii'
thread block = 0,63,0
GPGPU-Sim uArch: Shader 64 bind to kernel 1 '_Z22bpnn_layerforward_CUDAPfS_S_S_ii'
thread block = 0,64,0
GPGPU-Sim uArch: Shader 65 bind to kernel 1 '_Z22bpnn_layerforward_CUDAPfS_S_S_ii'
thread block = 0,65,0
GPGPU-Sim uArch: Shader 66 bind to kernel 1 '_Z22bpnn_layerforward_CUDAPfS_S_S_ii'
thread block = 0,66,0
GPGPU-Sim uArch: Shader 67 bind to kernel 1 '_Z22bpnn_layerforward_CUDAPfS_S_S_ii'
thread block = 0,67,0
GPGPU-Sim uArch: Shader 68 bind to kernel 1 '_Z22bpnn_layerforward_CUDAPfS_S_S_ii'
thread block = 0,68,0
GPGPU-Sim uArch: Shader 69 bind to kernel 1 '_Z22bpnn_layerforward_CUDAPfS_S_S_ii'
thread block = 0,69,0
GPGPU-Sim uArch: Shader 70 bind to kernel 1 '_Z22bpnn_layerforward_CUDAPfS_S_S_ii'
thread block = 0,70,0
GPGPU-Sim uArch: Shader 71 bind to kernel 1 '_Z22bpnn_layerforward_CUDAPfS_S_S_ii'
thread block = 0,71,0
GPGPU-Sim uArch: Shader 72 bind to kernel 1 '_Z22bpnn_layerforward_CUDAPfS_S_S_ii'
thread block = 0,72,0
GPGPU-Sim uArch: Shader 73 bind to kernel 1 '_Z22bpnn_layerforward_CUDAPfS_S_S_ii'
thread block = 0,73,0
GPGPU-Sim uArch: Shader 74 bind to kernel 1 '_Z22bpnn_layerforward_CUDAPfS_S_S_ii'
thread block = 0,74,0
GPGPU-Sim uArch: Shader 75 bind to kernel 1 '_Z22bpnn_layerforward_CUDAPfS_S_S_ii'
thread block = 0,75,0
GPGPU-Sim uArch: Shader 76 bind to kernel 1 '_Z22bpnn_layerforward_CUDAPfS_S_S_ii'
thread block = 0,76,0
GPGPU-Sim uArch: Shader 77 bind to kernel 1 '_Z22bpnn_layerforward_CUDAPfS_S_S_ii'
thread block = 0,77,0
GPGPU-Sim uArch: Shader 78 bind to kernel 1 '_Z22bpnn_layerforward_CUDAPfS_S_S_ii'
thread block = 0,78,0
GPGPU-Sim uArch: Shader 79 bind to kernel 1 '_Z22bpnn_layerforward_CUDAPfS_S_S_ii'
thread block = 0,79,0
thread block = 0,80,0
thread block = 0,81,0
thread block = 0,82,0
thread block = 0,83,0
thread block = 0,84,0
thread block = 0,85,0
thread block = 0,86,0
thread block = 0,87,0
thread block = 0,88,0
thread block = 0,89,0
thread block = 0,90,0
thread block = 0,91,0
thread block = 0,92,0
thread block = 0,93,0
thread block = 0,94,0
thread block = 0,95,0
thread block = 0,96,0
thread block = 0,97,0
thread block = 0,98,0
thread block = 0,99,0
thread block = 0,100,0
thread block = 0,101,0
thread block = 0,102,0
thread block = 0,103,0
thread block = 0,104,0
thread block = 0,105,0
thread block = 0,106,0
thread block = 0,107,0
thread block = 0,108,0
thread block = 0,109,0
thread block = 0,110,0
thread block = 0,111,0
thread block = 0,112,0
thread block = 0,113,0
thread block = 0,114,0
thread block = 0,115,0
thread block = 0,116,0
thread block = 0,117,0
thread block = 0,118,0
thread block = 0,119,0
thread block = 0,120,0
thread block = 0,121,0
thread block = 0,122,0
thread block = 0,123,0
thread block = 0,124,0
thread block = 0,125,0
thread block = 0,126,0
thread block = 0,127,0
thread block = 0,128,0
thread block = 0,129,0
thread block = 0,130,0
thread block = 0,131,0
thread block = 0,132,0
thread block = 0,133,0
thread block = 0,134,0
thread block = 0,135,0
thread block = 0,136,0
thread block = 0,137,0
thread block = 0,138,0
thread block = 0,139,0
thread block = 0,140,0
thread block = 0,141,0
thread block = 0,142,0
thread block = 0,143,0
thread block = 0,144,0
thread block = 0,145,0
thread block = 0,146,0
thread block = 0,147,0
thread block = 0,148,0
thread block = 0,149,0
thread block = 0,150,0
thread block = 0,151,0
thread block = 0,152,0
thread block = 0,153,0
thread block = 0,154,0
thread block = 0,155,0
thread block = 0,156,0
thread block = 0,157,0
thread block = 0,158,0
thread block = 0,159,0
thread block = 0,160,0
thread block = 0,161,0
thread block = 0,162,0
thread block = 0,163,0
thread block = 0,164,0
thread block = 0,165,0
thread block = 0,166,0
thread block = 0,167,0
thread block = 0,168,0
thread block = 0,169,0
thread block = 0,170,0
thread block = 0,171,0
thread block = 0,172,0
thread block = 0,173,0
thread block = 0,174,0
thread block = 0,175,0
thread block = 0,176,0
thread block = 0,177,0
thread block = 0,178,0
thread block = 0,179,0
thread block = 0,180,0
thread block = 0,181,0
thread block = 0,182,0
thread block = 0,183,0
thread block = 0,184,0
thread block = 0,185,0
thread block = 0,186,0
thread block = 0,187,0
thread block = 0,188,0
thread block = 0,189,0
thread block = 0,190,0
thread block = 0,191,0
thread block = 0,192,0
thread block = 0,193,0
thread block = 0,194,0
thread block = 0,195,0
thread block = 0,196,0
thread block = 0,197,0
thread block = 0,198,0
thread block = 0,199,0
thread block = 0,200,0
thread block = 0,201,0
thread block = 0,202,0
thread block = 0,203,0
thread block = 0,204,0
thread block = 0,205,0
thread block = 0,206,0
thread block = 0,207,0
thread block = 0,208,0
thread block = 0,209,0
thread block = 0,210,0
thread block = 0,211,0
thread block = 0,212,0
thread block = 0,213,0
thread block = 0,214,0
thread block = 0,215,0
thread block = 0,216,0
thread block = 0,217,0
thread block = 0,218,0
thread block = 0,219,0
thread block = 0,220,0
thread block = 0,221,0
thread block = 0,222,0
thread block = 0,223,0
thread block = 0,224,0
thread block = 0,225,0
thread block = 0,226,0
thread block = 0,227,0
thread block = 0,228,0
thread block = 0,229,0
thread block = 0,230,0
thread block = 0,231,0
thread block = 0,232,0
thread block = 0,233,0
thread block = 0,234,0
thread block = 0,235,0
thread block = 0,236,0
thread block = 0,237,0
thread block = 0,238,0
thread block = 0,239,0
thread block = 0,240,0
thread block = 0,241,0
thread block = 0,242,0
thread block = 0,243,0
thread block = 0,244,0
thread block = 0,245,0
thread block = 0,246,0
thread block = 0,247,0
thread block = 0,248,0
thread block = 0,249,0
thread block = 0,250,0
thread block = 0,251,0
thread block = 0,252,0
thread block = 0,253,0
thread block = 0,254,0
thread block = 0,255,0
Destroy streams for kernel 1: size 0
kernel_name = _Z22bpnn_layerforward_CUDAPfS_S_S_ii 
kernel_launch_uid = 1 
gpu_sim_cycle = 7948
gpu_sim_insn = 7589888
gpu_sim_insn_fp = 913408
gpu_bytes_leidos = 557056
gpu_bytes_leidos_Desde_MemFetch = 699424
gpu_arithmetic_intensity = 1.63970588235294
gpu_gflops = 166.293580
gpu_ipc =     954.9431
gpu_tot_sim_cycle = 7948
gpu_tot_sim_insn = 7589888
gpu_tot_ipc =     954.9431
gpu_tot_issued_cta = 256
gpu_occupancy = 38.3659% 
gpu_tot_occupancy = 38.3659% 
max_total_param_size = 0
gpu_stall_dramfull = 0
gpu_stall_icnt2sh    = 0
partiton_level_parallism =       2.7500
partiton_level_parallism_total  =       2.7500
partiton_level_parallism_util =      13.6266
partiton_level_parallism_util_total  =      13.6266
L2_BW  =     127.3360 GB/Sec
L2_BW_total  =     127.3360 GB/Sec
gpu_total_sim_rate=1517977

========= Core cache stats =========
L1I_cache:
	L1I_total_cache_accesses = 0
	L1I_total_cache_misses = 0
	L1I_total_cache_pending_hits = 0
	L1I_total_cache_reservation_fails = 0
L1D_cache:
	L1D_cache_core[0]: Access = 416, Miss = 162, Miss_rate = 0.389, Pending_hits = 70, Reservation_fails = 250
	L1D_cache_core[1]: Access = 416, Miss = 160, Miss_rate = 0.385, Pending_hits = 72, Reservation_fails = 318
	L1D_cache_core[2]: Access = 416, Miss = 157, Miss_rate = 0.377, Pending_hits = 49, Reservation_fails = 545
	L1D_cache_core[3]: Access = 416, Miss = 157, Miss_rate = 0.377, Pending_hits = 48, Reservation_fails = 553
	L1D_cache_core[4]: Access = 416, Miss = 157, Miss_rate = 0.377, Pending_hits = 49, Reservation_fails = 594
	L1D_cache_core[5]: Access = 416, Miss = 157, Miss_rate = 0.377, Pending_hits = 48, Reservation_fails = 597
	L1D_cache_core[6]: Access = 416, Miss = 157, Miss_rate = 0.377, Pending_hits = 50, Reservation_fails = 564
	L1D_cache_core[7]: Access = 416, Miss = 157, Miss_rate = 0.377, Pending_hits = 48, Reservation_fails = 617
	L1D_cache_core[8]: Access = 416, Miss = 157, Miss_rate = 0.377, Pending_hits = 48, Reservation_fails = 583
	L1D_cache_core[9]: Access = 448, Miss = 158, Miss_rate = 0.353, Pending_hits = 57, Reservation_fails = 803
	L1D_cache_core[10]: Access = 416, Miss = 157, Miss_rate = 0.377, Pending_hits = 47, Reservation_fails = 536
	L1D_cache_core[11]: Access = 416, Miss = 157, Miss_rate = 0.377, Pending_hits = 47, Reservation_fails = 540
	L1D_cache_core[12]: Access = 416, Miss = 157, Miss_rate = 0.377, Pending_hits = 50, Reservation_fails = 558
	L1D_cache_core[13]: Access = 416, Miss = 157, Miss_rate = 0.377, Pending_hits = 50, Reservation_fails = 550
	L1D_cache_core[14]: Access = 416, Miss = 157, Miss_rate = 0.377, Pending_hits = 48, Reservation_fails = 581
	L1D_cache_core[15]: Access = 416, Miss = 157, Miss_rate = 0.377, Pending_hits = 45, Reservation_fails = 623
	L1D_cache_core[16]: Access = 312, Miss = 118, Miss_rate = 0.378, Pending_hits = 38, Reservation_fails = 530
	L1D_cache_core[17]: Access = 312, Miss = 118, Miss_rate = 0.378, Pending_hits = 40, Reservation_fails = 466
	L1D_cache_core[18]: Access = 336, Miss = 119, Miss_rate = 0.354, Pending_hits = 46, Reservation_fails = 782
	L1D_cache_core[19]: Access = 312, Miss = 118, Miss_rate = 0.378, Pending_hits = 40, Reservation_fails = 497
	L1D_cache_core[20]: Access = 312, Miss = 118, Miss_rate = 0.378, Pending_hits = 39, Reservation_fails = 407
	L1D_cache_core[21]: Access = 312, Miss = 118, Miss_rate = 0.378, Pending_hits = 38, Reservation_fails = 417
	L1D_cache_core[22]: Access = 312, Miss = 118, Miss_rate = 0.378, Pending_hits = 40, Reservation_fails = 669
	L1D_cache_core[23]: Access = 312, Miss = 118, Miss_rate = 0.378, Pending_hits = 39, Reservation_fails = 470
	L1D_cache_core[24]: Access = 336, Miss = 119, Miss_rate = 0.354, Pending_hits = 46, Reservation_fails = 786
	L1D_cache_core[25]: Access = 312, Miss = 118, Miss_rate = 0.378, Pending_hits = 40, Reservation_fails = 520
	L1D_cache_core[26]: Access = 312, Miss = 118, Miss_rate = 0.378, Pending_hits = 36, Reservation_fails = 458
	L1D_cache_core[27]: Access = 312, Miss = 118, Miss_rate = 0.378, Pending_hits = 40, Reservation_fails = 445
	L1D_cache_core[28]: Access = 312, Miss = 118, Miss_rate = 0.378, Pending_hits = 39, Reservation_fails = 466
	L1D_cache_core[29]: Access = 312, Miss = 118, Miss_rate = 0.378, Pending_hits = 40, Reservation_fails = 548
	L1D_cache_core[30]: Access = 312, Miss = 118, Miss_rate = 0.378, Pending_hits = 36, Reservation_fails = 456
	L1D_cache_core[31]: Access = 312, Miss = 118, Miss_rate = 0.378, Pending_hits = 40, Reservation_fails = 561
	L1D_cache_core[32]: Access = 312, Miss = 118, Miss_rate = 0.378, Pending_hits = 40, Reservation_fails = 453
	L1D_cache_core[33]: Access = 312, Miss = 118, Miss_rate = 0.378, Pending_hits = 39, Reservation_fails = 417
	L1D_cache_core[34]: Access = 312, Miss = 118, Miss_rate = 0.378, Pending_hits = 40, Reservation_fails = 465
	L1D_cache_core[35]: Access = 312, Miss = 118, Miss_rate = 0.378, Pending_hits = 40, Reservation_fails = 466
	L1D_cache_core[36]: Access = 312, Miss = 118, Miss_rate = 0.378, Pending_hits = 40, Reservation_fails = 470
	L1D_cache_core[37]: Access = 312, Miss = 118, Miss_rate = 0.378, Pending_hits = 40, Reservation_fails = 548
	L1D_cache_core[38]: Access = 312, Miss = 118, Miss_rate = 0.378, Pending_hits = 37, Reservation_fails = 437
	L1D_cache_core[39]: Access = 312, Miss = 118, Miss_rate = 0.378, Pending_hits = 39, Reservation_fails = 443
	L1D_cache_core[40]: Access = 312, Miss = 118, Miss_rate = 0.378, Pending_hits = 39, Reservation_fails = 414
	L1D_cache_core[41]: Access = 312, Miss = 118, Miss_rate = 0.378, Pending_hits = 40, Reservation_fails = 647
	L1D_cache_core[42]: Access = 312, Miss = 118, Miss_rate = 0.378, Pending_hits = 40, Reservation_fails = 447
	L1D_cache_core[43]: Access = 312, Miss = 118, Miss_rate = 0.378, Pending_hits = 40, Reservation_fails = 460
	L1D_cache_core[44]: Access = 312, Miss = 118, Miss_rate = 0.378, Pending_hits = 40, Reservation_fails = 445
	L1D_cache_core[45]: Access = 312, Miss = 118, Miss_rate = 0.378, Pending_hits = 40, Reservation_fails = 592
	L1D_cache_core[46]: Access = 312, Miss = 118, Miss_rate = 0.378, Pending_hits = 39, Reservation_fails = 433
	L1D_cache_core[47]: Access = 312, Miss = 118, Miss_rate = 0.378, Pending_hits = 40, Reservation_fails = 464
	L1D_cache_core[48]: Access = 312, Miss = 118, Miss_rate = 0.378, Pending_hits = 40, Reservation_fails = 534
	L1D_cache_core[49]: Access = 312, Miss = 118, Miss_rate = 0.378, Pending_hits = 40, Reservation_fails = 497
	L1D_cache_core[50]: Access = 312, Miss = 118, Miss_rate = 0.378, Pending_hits = 40, Reservation_fails = 481
	L1D_cache_core[51]: Access = 312, Miss = 118, Miss_rate = 0.378, Pending_hits = 40, Reservation_fails = 535
	L1D_cache_core[52]: Access = 312, Miss = 118, Miss_rate = 0.378, Pending_hits = 40, Reservation_fails = 479
	L1D_cache_core[53]: Access = 312, Miss = 118, Miss_rate = 0.378, Pending_hits = 38, Reservation_fails = 518
	L1D_cache_core[54]: Access = 312, Miss = 118, Miss_rate = 0.378, Pending_hits = 40, Reservation_fails = 568
	L1D_cache_core[55]: Access = 312, Miss = 118, Miss_rate = 0.378, Pending_hits = 40, Reservation_fails = 548
	L1D_cache_core[56]: Access = 312, Miss = 118, Miss_rate = 0.378, Pending_hits = 37, Reservation_fails = 456
	L1D_cache_core[57]: Access = 312, Miss = 118, Miss_rate = 0.378, Pending_hits = 40, Reservation_fails = 499
	L1D_cache_core[58]: Access = 312, Miss = 118, Miss_rate = 0.378, Pending_hits = 38, Reservation_fails = 451
	L1D_cache_core[59]: Access = 312, Miss = 118, Miss_rate = 0.378, Pending_hits = 40, Reservation_fails = 502
	L1D_cache_core[60]: Access = 312, Miss = 118, Miss_rate = 0.378, Pending_hits = 35, Reservation_fails = 455
	L1D_cache_core[61]: Access = 312, Miss = 118, Miss_rate = 0.378, Pending_hits = 40, Reservation_fails = 529
	L1D_cache_core[62]: Access = 312, Miss = 118, Miss_rate = 0.378, Pending_hits = 36, Reservation_fails = 510
	L1D_cache_core[63]: Access = 312, Miss = 118, Miss_rate = 0.378, Pending_hits = 35, Reservation_fails = 472
	L1D_cache_core[64]: Access = 318, Miss = 120, Miss_rate = 0.377, Pending_hits = 45, Reservation_fails = 457
	L1D_cache_core[65]: Access = 312, Miss = 118, Miss_rate = 0.378, Pending_hits = 40, Reservation_fails = 496
	L1D_cache_core[66]: Access = 312, Miss = 118, Miss_rate = 0.378, Pending_hits = 37, Reservation_fails = 458
	L1D_cache_core[67]: Access = 312, Miss = 118, Miss_rate = 0.378, Pending_hits = 40, Reservation_fails = 495
	L1D_cache_core[68]: Access = 312, Miss = 118, Miss_rate = 0.378, Pending_hits = 39, Reservation_fails = 455
	L1D_cache_core[69]: Access = 312, Miss = 118, Miss_rate = 0.378, Pending_hits = 40, Reservation_fails = 468
	L1D_cache_core[70]: Access = 312, Miss = 118, Miss_rate = 0.378, Pending_hits = 38, Reservation_fails = 448
	L1D_cache_core[71]: Access = 312, Miss = 118, Miss_rate = 0.378, Pending_hits = 40, Reservation_fails = 459
	L1D_cache_core[72]: Access = 312, Miss = 118, Miss_rate = 0.378, Pending_hits = 37, Reservation_fails = 457
	L1D_cache_core[73]: Access = 312, Miss = 118, Miss_rate = 0.378, Pending_hits = 40, Reservation_fails = 498
	L1D_cache_core[74]: Access = 312, Miss = 118, Miss_rate = 0.378, Pending_hits = 38, Reservation_fails = 450
	L1D_cache_core[75]: Access = 312, Miss = 118, Miss_rate = 0.378, Pending_hits = 40, Reservation_fails = 497
	L1D_cache_core[76]: Access = 324, Miss = 120, Miss_rate = 0.370, Pending_hits = 51, Reservation_fails = 767
	L1D_cache_core[77]: Access = 312, Miss = 118, Miss_rate = 0.378, Pending_hits = 40, Reservation_fails = 477
	L1D_cache_core[78]: Access = 312, Miss = 118, Miss_rate = 0.378, Pending_hits = 39, Reservation_fails = 487
	L1D_cache_core[79]: Access = 324, Miss = 120, Miss_rate = 0.370, Pending_hits = 53, Reservation_fails = 833
	L1D_total_cache_accesses = 26734
	L1D_total_cache_misses = 10081
	L1D_total_cache_miss_rate = 0.3771
	L1D_total_cache_pending_hits = 3372
	L1D_total_cache_reservation_fails = 41127
	L1D_cache_data_port_util = 0.067
	L1D_cache_fill_port_util = 0.048
L1C_cache:
	L1C_total_cache_accesses = 0
	L1C_total_cache_misses = 0
	L1C_total_cache_pending_hits = 0
	L1C_total_cache_reservation_fails = 0
L1T_cache:
	L1T_total_cache_accesses = 0
	L1T_total_cache_misses = 0
	L1T_total_cache_pending_hits = 0
	L1T_total_cache_reservation_fails = 0

Total_core_cache_stats:
	Total_core_cache_stats_breakdown[GLOBAL_ACC_R][HIT] = 1505
	Total_core_cache_stats_breakdown[GLOBAL_ACC_R][HIT_RESERVED] = 3372
	Total_core_cache_stats_breakdown[GLOBAL_ACC_R][MISS] = 2779
	Total_core_cache_stats_breakdown[GLOBAL_ACC_R][RESERVATION_FAIL] = 33401
	Total_core_cache_stats_breakdown[GLOBAL_ACC_R][SECTOR_MISS] = 6790
	Total_core_cache_stats_breakdown[GLOBAL_ACC_R][MSHR_HIT] = 3372
	Total_core_cache_stats_breakdown[LOCAL_ACC_R][HIT] = 0
	Total_core_cache_stats_breakdown[LOCAL_ACC_R][HIT_RESERVED] = 0
	Total_core_cache_stats_breakdown[LOCAL_ACC_R][MISS] = 0
	Total_core_cache_stats_breakdown[LOCAL_ACC_R][RESERVATION_FAIL] = 0
	Total_core_cache_stats_breakdown[LOCAL_ACC_R][SECTOR_MISS] = 0
	Total_core_cache_stats_breakdown[LOCAL_ACC_R][MSHR_HIT] = 0
	Total_core_cache_stats_breakdown[CONST_ACC_R][HIT] = 0
	Total_core_cache_stats_breakdown[CONST_ACC_R][HIT_RESERVED] = 0
	Total_core_cache_stats_breakdown[CONST_ACC_R][MISS] = 0
	Total_core_cache_stats_breakdown[CONST_ACC_R][RESERVATION_FAIL] = 0
	Total_core_cache_stats_breakdown[CONST_ACC_R][SECTOR_MISS] = 0
	Total_core_cache_stats_breakdown[CONST_ACC_R][MSHR_HIT] = 0
	Total_core_cache_stats_breakdown[TEXTURE_ACC_R][HIT] = 0
	Total_core_cache_stats_breakdown[TEXTURE_ACC_R][HIT_RESERVED] = 0
	Total_core_cache_stats_breakdown[TEXTURE_ACC_R][MISS] = 0
	Total_core_cache_stats_breakdown[TEXTURE_ACC_R][RESERVATION_FAIL] = 0
	Total_core_cache_stats_breakdown[TEXTURE_ACC_R][SECTOR_MISS] = 0
	Total_core_cache_stats_breakdown[TEXTURE_ACC_R][MSHR_HIT] = 0
	Total_core_cache_stats_breakdown[GLOBAL_ACC_W][HIT] = 11776
	Total_core_cache_stats_breakdown[GLOBAL_ACC_W][HIT_RESERVED] = 0
	Total_core_cache_stats_breakdown[GLOBAL_ACC_W][MISS] = 256
	Total_core_cache_stats_breakdown[GLOBAL_ACC_W][RESERVATION_FAIL] = 7726
	Total_core_cache_stats_breakdown[GLOBAL_ACC_W][SECTOR_MISS] = 256
	Total_core_cache_stats_breakdown[GLOBAL_ACC_W][MSHR_HIT] = 0
	Total_core_cache_stats_breakdown[LOCAL_ACC_W][HIT] = 0
	Total_core_cache_stats_breakdown[LOCAL_ACC_W][HIT_RESERVED] = 0
	Total_core_cache_stats_breakdown[LOCAL_ACC_W][MISS] = 0
	Total_core_cache_stats_breakdown[LOCAL_ACC_W][RESERVATION_FAIL] = 0
	Total_core_cache_stats_breakdown[LOCAL_ACC_W][SECTOR_MISS] = 0
	Total_core_cache_stats_breakdown[LOCAL_ACC_W][MSHR_HIT] = 0
	Total_core_cache_stats_breakdown[L1_WRBK_ACC][HIT] = 0
	Total_core_cache_stats_breakdown[L1_WRBK_ACC][HIT_RESERVED] = 0
	Total_core_cache_stats_breakdown[L1_WRBK_ACC][MISS] = 0
	Total_core_cache_stats_breakdown[L1_WRBK_ACC][RESERVATION_FAIL] = 0
	Total_core_cache_stats_breakdown[L1_WRBK_ACC][SECTOR_MISS] = 0
	Total_core_cache_stats_breakdown[L1_WRBK_ACC][MSHR_HIT] = 0
	Total_core_cache_stats_breakdown[L2_WRBK_ACC][HIT] = 0
	Total_core_cache_stats_breakdown[L2_WRBK_ACC][HIT_RESERVED] = 0
	Total_core_cache_stats_breakdown[L2_WRBK_ACC][MISS] = 0
	Total_core_cache_stats_breakdown[L2_WRBK_ACC][RESERVATION_FAIL] = 0
	Total_core_cache_stats_breakdown[L2_WRBK_ACC][SECTOR_MISS] = 0
	Total_core_cache_stats_breakdown[L2_WRBK_ACC][MSHR_HIT] = 0
	Total_core_cache_stats_breakdown[INST_ACC_R][HIT] = 0
	Total_core_cache_stats_breakdown[INST_ACC_R][HIT_RESERVED] = 0
	Total_core_cache_stats_breakdown[INST_ACC_R][MISS] = 0
	Total_core_cache_stats_breakdown[INST_ACC_R][RESERVATION_FAIL] = 0
	Total_core_cache_stats_breakdown[INST_ACC_R][SECTOR_MISS] = 0
	Total_core_cache_stats_breakdown[INST_ACC_R][MSHR_HIT] = 0
	Total_core_cache_stats_breakdown[L1_WR_ALLOC_R][HIT] = 0
	Total_core_cache_stats_breakdown[L1_WR_ALLOC_R][HIT_RESERVED] = 0
	Total_core_cache_stats_breakdown[L1_WR_ALLOC_R][MISS] = 0
	Total_core_cache_stats_breakdown[L1_WR_ALLOC_R][RESERVATION_FAIL] = 0
	Total_core_cache_stats_breakdown[L1_WR_ALLOC_R][SECTOR_MISS] = 0
	Total_core_cache_stats_breakdown[L1_WR_ALLOC_R][MSHR_HIT] = 0
	Total_core_cache_stats_breakdown[L2_WR_ALLOC_R][HIT] = 0
	Total_core_cache_stats_breakdown[L2_WR_ALLOC_R][HIT_RESERVED] = 0
	Total_core_cache_stats_breakdown[L2_WR_ALLOC_R][MISS] = 0
	Total_core_cache_stats_breakdown[L2_WR_ALLOC_R][RESERVATION_FAIL] = 0
	Total_core_cache_stats_breakdown[L2_WR_ALLOC_R][SECTOR_MISS] = 0
	Total_core_cache_stats_breakdown[L2_WR_ALLOC_R][MSHR_HIT] = 0
	Total_core_cache_stats_breakdown[GLOBAL_ACC_R][TOTAL_ACCESS] = 14446
	Total_core_cache_stats_breakdown[GLOBAL_ACC_W][TOTAL_ACCESS] = 12288

Total_core_cache_fail_stats:
	Total_core_cache_fail_stats_breakdown[GLOBAL_ACC_R][MISS_QUEUE_FULL] = 7357
	Total_core_cache_fail_stats_breakdown[GLOBAL_ACC_R][MSHR_MERGE_ENRTY_FAIL] = 26044
	Total_core_cache_fail_stats_breakdown[GLOBAL_ACC_W][MISS_QUEUE_FULL] = 7726
ctas_completed 256, Shader 0 warp_id issue ditsribution:
warp_id:
0, 1, 2, 3, 4, 5, 6, 7, 8, 9, 10, 11, 12, 13, 14, 15, 16, 17, 18, 19, 20, 21, 22, 23, 24, 25, 26, 27, 28, 29, 30, 31, 
distro:
159, 135, 143, 135, 151, 135, 143, 135, 159, 135, 143, 135, 151, 135, 143, 135, 159, 135, 143, 135, 151, 135, 143, 135, 159, 135, 143, 135, 151, 135, 143, 135, 
gpgpu_n_tot_thrd_icount = 7589888
gpgpu_n_tot_w_icount = 290816
gpgpu_n_stall_shd_mem = 17657
gpgpu_n_mem_read_local = 0
gpgpu_n_mem_write_local = 0
gpgpu_n_mem_read_global = 9569
gpgpu_n_mem_write_global = 12288
gpgpu_n_mem_texture = 0
gpgpu_n_mem_const = 0
gpgpu_n_load_insn  = 69632
gpgpu_n_store_insn = 69632
gpgpu_n_shmem_insn = 520192
gpgpu_n_sstarr_insn = 0
gpgpu_n_tex_insn = 0
gpgpu_n_const_mem_insn = 0
gpgpu_n_param_mem_insn = 0
gpgpu_n_shmem_bkconflict = 0
gpgpu_n_cache_bkconflict = 0
gpgpu_n_intrawarp_mshr_merge = 0
gpgpu_n_cmem_portconflict = 0
gpgpu_stall_shd_mem[c_mem][resource_stall] = 0
gpgpu_stall_shd_mem[s_mem][bk_conf] = 0
gpgpu_stall_shd_mem[gl_mem][resource_stall] = 13570
gpgpu_stall_shd_mem[gl_mem][coal_stall] = 4087
gpgpu_stall_shd_mem[gl_mem][data_port_stall] = 0
gpu_reg_bank_conflict_stalls = 0
Warp Occupancy Distribution:
Stall:157645	W0_Idle:89924	W0_Scoreboard:266983	W1:0	W2:18432	W3:0	W4:0	W5:0	W6:0	W7:0	W8:0	W9:0	W10:0	W11:0	W12:0	W13:0	W14:0	W15:0	W16:41216	W17:0	W18:0	W19:0	W20:0	W21:0	W22:0	W23:0	W24:0	W25:0	W26:0	W27:0	W28:0	W29:0	W30:2048	W31:0	W32:213504
single_issue_nums: WS0:79360	WS1:69120	WS2:73216	WS3:69120	
dual_issue_nums: WS0:0	WS1:0	WS2:0	WS3:0	
traffic_breakdown_coretomem[GLOBAL_ACC_R] = 76552 {8:9569,}
traffic_breakdown_coretomem[GLOBAL_ACC_W] = 491520 {40:12288,}
traffic_breakdown_memtocore[GLOBAL_ACC_R] = 382760 {40:9569,}
traffic_breakdown_memtocore[GLOBAL_ACC_W] = 98304 {8:12288,}
maxmflatency = 755 
max_icnt2mem_latency = 404 
maxmrqlatency = 166 
max_icnt2sh_latency = 53 
averagemflatency = 328 
avg_icnt2mem_latency = 57 
avg_mrq_latency = 21 
avg_icnt2sh_latency = 5 
mrq_lat_table:647 	1891 	1280 	1315 	1957 	1492 	676 	22 	0 	0 	0 	0 	0 	0 	0 	0 	0 	0 	0 	0 	0 	0 	0 	0 	0 	0 	0 	0 	0 	0 	0 	0 	
dq_lat_table:0 	0 	0 	0 	0 	0 	0 	0 	0 	0 	0 	0 	0 	0 	0 	0 	0 	0 	0 	0 	0 	0 	0 	0 	0 	0 	0 	0 	0 	0 	0 	0 	
mf_lat_table:0 	0 	0 	0 	0 	0 	0 	12100 	7705 	2052 	0 	0 	0 	0 	0 	0 	0 	0 	0 	0 	0 	0 	0 	0 	0 	0 	0 	0 	0 	0 	0 	0 	
icnt2mem_lat_table:0 	0 	0 	0 	5059 	12372 	4105 	263 	58 	0 	0 	0 	0 	0 	0 	0 	0 	0 	0 	0 	0 	0 	0 	0 	
icnt2sh_lat_table:0 	14841 	3844 	2163 	853 	156 	0 	0 	0 	0 	0 	0 	0 	0 	0 	0 	0 	0 	0 	0 	0 	0 	0 	0 	
mf_lat_pw_table:0 	0 	0 	0 	0 	0 	0 	2 	3 	0 	0 	0 	0 	0 	0 	0 	0 	0 	0 	0 	0 	0 	0 	0 	0 	0 	0 	0 	0 	0 	0 	0 	
maximum concurrent accesses to same row:
dram[0]:         7         0         0         0         0         0         0         0         0         0         0         0         0         0         0         0 
dram[1]:         0         0         0         0         0         1         0         0         0         0         0         0         0         0         0         0 
dram[2]:         0         0         0         0         0         0         0         0         0         0         0         0         0         0         0         0 
dram[3]:         0         0         0         0         0         0         0         0         0         0         0         0         0         0         0         0 
dram[4]:         0         1         0         0         0         0         0         0         0         0         0         0         0         0         0         0 
dram[5]:         1         0         0         0         0         0         0         0         0         0         0         0         0         0         0         0 
dram[6]:         0         0         0         1         1         0         0         0         0         0         0         0         0         0         0         0 
dram[7]:         0         0         1         0         0         0         0         0         0         0         0         0         0         0         0         0 
dram[8]:         0         0         0         0         2         0         0         0         0         0         0         0         0         0         0         0 
dram[9]:         0         0         0         1         0         1         0         0         0         0         0         0         0         0         0         0 
dram[10]:         0         0         0         1         0         0         0         0         0         0         0         0         0         0         0         0 
dram[11]:         0         0         0         1         0         0         0         0         0         0         0         0         0         0         0         0 
dram[12]:         0         0         0         0         0         0         0         0         0         0         0         0         0         0         0         0 
dram[13]:         0         0         0         0         0         0         0         0         0         0         0         0         0         0         0         0 
dram[14]:         0         0         0         0         0         0         0         0         0         0         0         0         0         0         0         0 
dram[15]:         0         0         0         0         0         0         0         0         0         0         0         0         0         0         0         0 
dram[16]:         0         0         0         0         0         1         0         0         0         0         0         0         0         0         0         0 
dram[17]:         8         0         0         0         0         0         1         0         0         0         0         0         2         0         0         0 
dram[18]:         0         1         0         0         0         0         0         0         0         0         0         0         0         0         0         0 
dram[19]:         0         0         0         0         0         0         0         0         0         0         0         0         0         0         0         0 
dram[20]:         0         0         0         0         0         0         0         0         0         0         0         0         0         0         0         0 
dram[21]:         0         0         0         0         0         0         0         0         0         0         0         0         0         0         0         0 
dram[22]:         0         0         0         0         0         0         0         0         0         0         0         0         0         0         0         0 
dram[23]:         8         0         0         0         1         0         0         0         0         0         0         0         0         0         0         0 
dram[24]:         0         0         0         0         1         0         0         0         0         0         0         0         0         0         0         0 
dram[25]:         0         0         0         0         0         0         0         0         0         0         0         0         0         0         0         0 
dram[26]:         0         0         0         0         0         0         0         0         0         0         0         0         0         0         0         0 
dram[27]:         0         0         0         0         1         1         0         0         0         0         0         0         0         0         0         0 
dram[28]:         0         0         0         0         1         0         0         0         0         0         0         0         0         0         1         0 
dram[29]:         0         0         0         0         0         0         0         0         0         0         0         0         0         0         0         0 
dram[30]:         0         2         0         0         0         1         0         0         0         0         0         0         0         0         0         0 
dram[31]:         0         0         0         0         0         1         0         0         0         0         0         0         0         0         0         0 
maximum service time to same row:
dram[0]:      5424      5562      5831      5773      5918      6080         0         0         0         0      5397         0         0         0         0         0 
dram[1]:      5404      5411      5788      5790      5962      5433         0      5397      5399         0         0         0         0         0         0         0 
dram[2]:      5404      5419      5828      5768      5971      5778      5438         0         0         0      5433         0         0         0         0         0 
dram[3]:      5404      5412      5809      5768      5926      5812         0         0         0         0         0         0         0         0         0         0 
dram[4]:      5404      5397      5860      5768      6119      5850         0         0         0         0         0         0         0         0         0         0 
dram[5]:      5399      5448      5783      5867      5914      5777      5397         0         0         0         0         0         0         0         0         0 
dram[6]:      5404      5448      5794      5399      5433      6030         0         0         0         0      5443         0         0         0         0         0 
dram[7]:      5404      5450      5399      5773      6093      5860         0      5397      5400         0         0         0         0         0         0         0 
dram[8]:      5400      5411      5775      5853      5397      6185         0         0         0         0         0      5399         0         0         0         0 
dram[9]:      5400      5412      5790      5429      6093      5399      5397         0         0         0         0         0         0         0         0         0 
dram[10]:      5400      5411      5863      5397      5983      5816         0         0         0         0         0         0      5399         0         0         0 
dram[11]:      5399      5411      5833      5402      5937      6080         0         0         0         0      5429         0      5397         0         0         0 
dram[12]:      5436      5411      5770      5857      5986      5834         0      5429         0         0         0         0         0         0      5397         0 
dram[13]:      5436      5411      5794      5908      5972      5795         0      5400         0         0         0         0         0         0         0      5399 
dram[14]:      5436      5411      5800      5773      6097      5976         0         0         0         0         0         0         0      5397         0         0 
dram[15]:      5436      5412      5787      5778      6102      5814      5429         0         0         0         0         0         0         0         0         0 
dram[16]:      5399      5443      5870      5894      6090      5397         0         0         0         0         0         0         0         0         0         0 
dram[17]:      5399      5445      5874      5778      6100      5904      5405         0         0         0         0         0      5397      5431         0         0 
dram[18]:      5397      5434      5867      5836      6122      5850         0         0         0         0         0         0         0         0         0         0 
dram[19]:      5397      5443      5841      5843      6097      5938         0         0         0         0         0         0         0         0         0         0 
dram[20]:      5397      5411      5857      5858      6039      5874         0         0         0         0         0         0         0         0         0         0 
dram[21]:      5399      5411      5926      5872      6023      5909         0         0         0         0         0      5397         0         0         0         0 
dram[22]:      5397      5411      5807      5857      6120      5969         0         0         0         0         0         0         0         0         0         0 
dram[23]:      5402      5411      5877      5853      5399      5960         0         0         0      5397         0         0         0         0      5400         0 
dram[24]:      5429      5404      5819      5770      5397      6039         0         0         0         0      5441         0      5399         0         0         0 
dram[25]:      5429      5404      5831      5794      6132      6049         0         0         0         0         0         0         0         0         0         0 
dram[26]:      5429      5404      5828      5802      6066      6068         0         0         0         0         0         0         0         0         0         0 
dram[27]:      5429      5407      5855      5771      5433      5397         0         0         0         0         0         0      5436         0         0         0 
dram[28]:      5399      5407      5857      5843      5404      5892         0         0         0         0         0         0         0         0      5397         0 
dram[29]:      5397      5404      5843      5845      6049      5850         0         0         0         0         0         0         0         0         0         0 
dram[30]:      5397      5436      5831      5833      6098      5404      5429         0         0         0         0         0         0         0         0         0 
dram[31]:      5397      5407      5809      5817      6071      5429         0         0         0         0         0         0         0         0         0         0 
average row accesses per activate:
dram[0]: 22.000000 64.000000 64.000000 64.000000 24.000000 16.000000      -nan      -nan      -nan      -nan  1.000000      -nan      -nan      -nan      -nan      -nan 
dram[1]: 64.000000 64.000000 64.000000 64.000000 24.000000  8.500000      -nan  1.000000  1.000000      -nan      -nan      -nan      -nan      -nan      -nan      -nan 
dram[2]: 64.000000 64.000000 64.000000 64.000000 24.000000 16.000000  1.000000      -nan      -nan      -nan  1.000000      -nan      -nan      -nan      -nan      -nan 
dram[3]: 64.000000 64.000000 64.000000 64.000000 24.000000 16.000000      -nan      -nan      -nan      -nan      -nan      -nan      -nan      -nan      -nan      -nan 
dram[4]: 64.000000 32.500000 64.000000 64.000000 16.000000 16.000000      -nan      -nan      -nan      -nan      -nan      -nan      -nan      -nan      -nan      -nan 
dram[5]: 32.500000 64.000000 64.000000 64.000000 16.000000 16.000000  1.000000      -nan      -nan      -nan      -nan      -nan      -nan      -nan      -nan      -nan 
dram[6]: 64.000000 64.000000 64.000000 32.500000 10.000000 16.000000      -nan      -nan      -nan      -nan  1.000000      -nan      -nan      -nan      -nan      -nan 
dram[7]: 64.000000 64.000000 32.500000 64.000000 16.000000 16.000000      -nan  1.000000  1.000000      -nan      -nan      -nan      -nan      -nan      -nan      -nan 
dram[8]: 64.000000 64.000000 64.000000 64.000000  9.000000 16.000000      -nan      -nan      -nan      -nan      -nan  1.000000      -nan      -nan      -nan      -nan 
dram[9]: 64.000000 64.000000 64.000000 32.500000 16.000000  8.500000  1.000000      -nan      -nan      -nan      -nan      -nan      -nan      -nan      -nan      -nan 
dram[10]: 64.000000 64.000000 64.000000 32.500000 16.000000 16.000000      -nan      -nan      -nan      -nan      -nan      -nan  1.000000      -nan      -nan      -nan 
dram[11]: 64.000000 64.000000 64.000000 32.500000 16.000000 16.000000      -nan      -nan      -nan      -nan  2.000000      -nan  1.000000      -nan      -nan      -nan 
dram[12]: 64.000000 64.000000 64.000000 64.000000 16.000000 16.000000      -nan  1.000000      -nan      -nan      -nan      -nan      -nan      -nan  1.000000      -nan 
dram[13]: 64.000000 64.000000 64.000000 64.000000 16.000000 16.000000      -nan  1.000000      -nan      -nan      -nan      -nan      -nan      -nan      -nan  1.000000 
dram[14]: 64.000000 64.000000 64.000000 64.000000 16.000000 16.000000      -nan      -nan      -nan      -nan      -nan      -nan      -nan  1.000000      -nan      -nan 
dram[15]: 64.000000 64.000000 64.000000 64.000000 16.000000 16.000000  1.000000      -nan      -nan      -nan      -nan      -nan      -nan      -nan      -nan      -nan 
dram[16]: 64.000000 64.000000 64.000000 64.000000 16.000000  8.500000      -nan      -nan      -nan      -nan      -nan      -nan      -nan      -nan      -nan      -nan 
dram[17]: 21.666666 64.000000 64.000000 64.000000 16.000000 16.000000  1.000000      -nan      -nan      -nan      -nan      -nan  1.500000  1.000000      -nan      -nan 
dram[18]: 64.000000 32.500000 64.000000 64.000000 16.000000 16.000000      -nan      -nan      -nan      -nan      -nan      -nan      -nan      -nan      -nan      -nan 
dram[19]: 64.000000 64.000000 64.000000 64.000000 16.000000 16.000000      -nan      -nan      -nan      -nan      -nan      -nan      -nan      -nan      -nan      -nan 
dram[20]: 64.000000 64.000000 64.000000 64.000000 16.000000 16.000000      -nan      -nan      -nan      -nan      -nan      -nan      -nan      -nan      -nan      -nan 
dram[21]: 64.000000 64.000000 64.000000 64.000000 16.000000 16.000000      -nan      -nan      -nan      -nan      -nan  1.000000      -nan      -nan      -nan      -nan 
dram[22]: 64.000000 64.000000 64.000000 64.000000 16.000000 16.000000      -nan      -nan      -nan      -nan      -nan      -nan      -nan      -nan      -nan      -nan 
dram[23]: 21.666666 64.000000 64.000000 64.000000  8.500000 16.000000      -nan      -nan      -nan  1.000000      -nan      -nan      -nan      -nan  1.000000      -nan 
dram[24]: 56.000000 64.000000 64.000000 64.000000  8.500000 16.000000      -nan      -nan      -nan      -nan  1.000000      -nan  1.000000      -nan      -nan      -nan 
dram[25]: 56.000000 64.000000 64.000000 64.000000 16.000000 16.000000      -nan      -nan      -nan      -nan      -nan      -nan      -nan      -nan      -nan      -nan 
dram[26]: 56.000000 64.000000 64.000000 64.000000 16.000000 16.000000      -nan      -nan      -nan      -nan      -nan      -nan      -nan      -nan      -nan      -nan 
dram[27]: 56.000000 64.000000 64.000000 64.000000  8.500000  8.500000      -nan      -nan      -nan      -nan      -nan      -nan  1.000000      -nan      -nan      -nan 
dram[28]: 62.000000 64.000000 64.000000 64.000000  8.500000 16.000000      -nan      -nan      -nan      -nan      -nan      -nan      -nan      -nan  1.000000      -nan 
dram[29]: 64.000000 64.000000 64.000000 64.000000 16.000000 16.000000      -nan      -nan      -nan      -nan      -nan      -nan      -nan      -nan      -nan      -nan 
dram[30]: 64.000000 66.000000 64.000000 64.000000 16.000000  8.500000  1.000000      -nan      -nan      -nan      -nan      -nan      -nan      -nan      -nan      -nan 
dram[31]: 64.000000 64.000000 64.000000 64.000000 16.000000  8.500000      -nan      -nan      -nan      -nan      -nan      -nan      -nan      -nan      -nan      -nan 
average row locality = 9280/252 = 36.825397
number of total memory accesses made:
dram[0]:         0         0         0         0         0         0         0         0         0         0         0         0         0         0         0         0 
dram[1]:         0         0         0         0         0         0         0         0         0         0         0         0         0         0         0         0 
dram[2]:         0         0         0         0         0         0         0         0         0         0         0         0         0         0         0         0 
dram[3]:         0         0         0         0         0         0         0         0         0         0         0         0         0         0         0         0 
dram[4]:         0         0         0         0         0         0         0         0         0         0         0         0         0         0         0         0 
dram[5]:         0         0         0         0         0         0         0         0         0         0         0         0         0         0         0         0 
dram[6]:         0         0         0         0         0         0         0         0         0         0         0         0         0         0         0         0 
dram[7]:         0         0         0         0         0         0         0         0         0         0         0         0         0         0         0         0 
dram[8]:         0         0         0         0         0         0         0         0         0         0         0         0         0         0         0         0 
dram[9]:         0         0         0         0         0         0         0         0         0         0         0         0         0         0         0         0 
dram[10]:         0         0         0         0         0         0         0         0         0         0         0         0         0         0         0         0 
dram[11]:         0         0         0         0         0         0         0         0         0         0         0         0         0         0         0         0 
dram[12]:         0         0         0         0         0         0         0         0         0         0         0         0         0         0         0         0 
dram[13]:         0         0         0         0         0         0         0         0         0         0         0         0         0         0         0         0 
dram[14]:         0         0         0         0         0         0         0         0         0         0         0         0         0         0         0         0 
dram[15]:         0         0         0         0         0         0         0         0         0         0         0         0         0         0         0         0 
dram[16]:         0         0         0         0         0         0         0         0         0         0         0         0         0         0         0         0 
dram[17]:         0         0         0         0         0         0         0         0         0         0         0         0         0         0         0         0 
dram[18]:         0         0         0         0         0         0         0         0         0         0         0         0         0         0         0         0 
dram[19]:         0         0         0         0         0         0         0         0         0         0         0         0         0         0         0         0 
dram[20]:         0         0         0         0         0         0         0         0         0         0         0         0         0         0         0         0 
dram[21]:         0         0         0         0         0         0         0         0         0         0         0         0         0         0         0         0 
dram[22]:         0         0         0         0         0         0         0         0         0         0         0         0         0         0         0         0 
dram[23]:         0         0         0         0         0         0         0         0         0         0         0         0         0         0         0         0 
dram[24]:         0         0         0         0         0         0         0         0         0         0         0         0         0         0         0         0 
dram[25]:         0         0         0         0         0         0         0         0         0         0         0         0         0         0         0         0 
dram[26]:         0         0         0         0         0         0         0         0         0         0         0         0         0         0         0         0 
[...]

Commands details: 
total_CMD = 8841 
n_nop = 8281 
Read = 555 
Write = 0 
L2_Alloc = 0 
L2_WB = 0 
n_act = 13 
n_pre = 2 
n_ref = 0 
n_req = 555 
total_req = 555 

Dual Bus Interface Util: 
issued_total_row = 15 
issued_total_col = 555 
Row_Bus_Util =  0.001697 
CoL_Bus_Util = 0.062776 
Either_Row_CoL_Bus_Util = 0.063341 
Issued_on_Two_Bus_Simul_Util = 0.001131 
issued_two_Eff = 0.017857 
queue_avg = 0.429024 


dram_util_bins: 0 0 0 0 0 0 0 0 0 0
dram_eff_bins: 0 0 0 0 0 0 0 0 0 0
mrqq: max=14 avg=0.429024
Memory Partition 28: 
Cache L2_bank_056:
MSHR contents

Cache L2_bank_057:
MSHR contents

In Dram Latency Queue (total = 0): 
DRAM[28]: 16 bks, busW=16 BL=2 CL=12, tRRD=3 tCCD=1, tRCD=12 tRAS=28 tRP=12 tRC=40
n_cmd=8841 n_nop=8271 n_act=13 n_pre=2 n_ref_event=0 n_req=563 n_rd=563 n_rd_L2_A=0 n_write=0 n_wr_bk=0 bw_util=0.06368
n_activity=781 dram_eff=0.7209
bk0: 64a 8774i bk1: 64a 8788i bk2: 64a 8764i bk3: 64a 8728i bk4: 57a 8684i bk5: 56a 8710i bk6: 64a 8788i bk7: 64a 8776i bk8: 32a 8811i bk9: 32a 8793i bk10: 0a 8841i bk11: 0a 8841i bk12: 0a 8841i bk13: 0a 8841i bk14: 2a 8790i bk15: 0a 8841i 

------------------------------------------------------------------------

Row_Buffer_Locality = 0.976909
Row_Buffer_Locality_read = 0.976909
Row_Buffer_Locality_write = -nan
Bank_Level_Parallism = 2.159509
Bank_Level_Parallism_Col = 2.085139
Bank_Level_Parallism_Ready = 1.481350
write_to_read_ratio_blp_rw_average = 0.000000
GrpLevelPara = 1.896285 

BW Util details:
bwutil = 0.063681 
total_CMD = 8841 
util_bw = 563 
Wasted_Col = 86 
Wasted_Row = 3 
Idle = 8189 

BW Util Bottlenecks: 
RCDc_limit = 73 
RCDWRc_limit = 0 
WTRc_limit = 0 
RTWc_limit = 0 
CCDLc_limit = 60 
rwq = 0 
CCDLc_limit_alone = 60 
WTRc_limit_alone = 0 
RTWc_limit_alone = 0 

Commands details: 
total_CMD = 8841 
n_nop = 8271 
Read = 563 
Write = 0 
L2_Alloc = 0 
L2_WB = 0 
n_act = 13 
n_pre = 2 
n_ref = 0 
n_req = 563 
total_req = 563 

Dual Bus Interface Util: 
issued_total_row = 15 
issued_total_col = 563 
Row_Bus_Util =  0.001697 
CoL_Bus_Util = 0.063681 
Either_Row_CoL_Bus_Util = 0.064472 
Issued_on_Two_Bus_Simul_Util = 0.000905 
issued_two_Eff = 0.014035 
queue_avg = 0.379256 


dram_util_bins: 0 0 0 0 0 0 0 0 0 0
dram_eff_bins: 0 0 0 0 0 0 0 0 0 0
mrqq: max=13 avg=0.379256
Memory Partition 29: 
Cache L2_bank_058:
MSHR contents

Cache L2_bank_059:
MSHR contents

In Dram Latency Queue (total = 0): 
DRAM[29]: 16 bks, busW=16 BL=2 CL=12, tRRD=3 tCCD=1, tRCD=12 tRAS=28 tRP=12 tRC=40
n_cmd=8841 n_nop=8275 n_act=10 n_pre=0 n_ref_event=0 n_req=560 n_rd=560 n_rd_L2_A=0 n_write=0 n_wr_bk=0 bw_util=0.06334
n_activity=745 dram_eff=0.7517
bk0: 64a 8765i bk1: 64a 8763i bk2: 64a 8760i bk3: 64a 8719i bk4: 56a 8742i bk5: 56a 8738i bk6: 64a 8794i bk7: 64a 8786i bk8: 32a 8798i bk9: 32a 8793i bk10: 0a 8841i bk11: 0a 8841i bk12: 0a 8841i bk13: 0a 8841i bk14: 0a 8841i bk15: 0a 8841i 

------------------------------------------------------------------------

Row_Buffer_Locality = 0.982143
Row_Buffer_Locality_read = 0.982143
Row_Buffer_Locality_write = -nan
Bank_Level_Parallism = 2.003053
Bank_Level_Parallism_Col = 1.990798
Bank_Level_Parallism_Ready = 1.410714
write_to_read_ratio_blp_rw_average = 0.000000
GrpLevelPara = 1.837423 

BW Util details:
bwutil = 0.063341 
total_CMD = 8841 
util_bw = 560 
Wasted_Col = 95 
Wasted_Row = 0 
Idle = 8186 

BW Util Bottlenecks: 
RCDc_limit = 53 
RCDWRc_limit = 0 
WTRc_limit = 0 
RTWc_limit = 0 
CCDLc_limit = 74 
rwq = 0 
CCDLc_limit_alone = 74 
WTRc_limit_alone = 0 
RTWc_limit_alone = 0 

Commands details: 
total_CMD = 8841 
n_nop = 8275 
Read = 560 
Write = 0 
L2_Alloc = 0 
L2_WB = 0 
n_act = 10 
n_pre = 0 
n_ref = 0 
n_req = 560 
total_req = 560 

Dual Bus Interface Util: 
issued_total_row = 10 
issued_total_col = 560 
Row_Bus_Util =  0.001131 
CoL_Bus_Util = 0.063341 
Either_Row_CoL_Bus_Util = 0.064020 
Issued_on_Two_Bus_Simul_Util = 0.000452 
issued_two_Eff = 0.007067 
queue_avg = 0.554801 


dram_util_bins: 0 0 0 0 0 0 0 0 0 0
dram_eff_bins: 0 0 0 0 0 0 0 0 0 0
mrqq: max=17 avg=0.554801
Memory Partition 30: 
Cache L2_bank_060:
MSHR contents

Cache L2_bank_061:
MSHR contents

In Dram Latency Queue (total = 0): 
DRAM[30]: 16 bks, busW=16 BL=2 CL=12, tRRD=3 tCCD=1, tRCD=12 tRAS=28 tRP=12 tRC=40
n_cmd=8841 n_nop=8270 n_act=13 n_pre=3 n_ref_event=0 n_req=564 n_rd=564 n_rd_L2_A=0 n_write=0 n_wr_bk=0 bw_util=0.06379
n_activity=815 dram_eff=0.692
bk0: 64a 8778i bk1: 66a 8732i bk2: 64a 8762i bk3: 64a 8719i bk4: 56a 8746i bk5: 57a 8693i bk6: 65a 8769i bk7: 64a 8765i bk8: 32a 8803i bk9: 32a 8787i bk10: 0a 8841i bk11: 0a 8841i bk12: 0a 8841i bk13: 0a 8841i bk14: 0a 8841i bk15: 0a 8841i 

------------------------------------------------------------------------

Row_Buffer_Locality = 0.978723
Row_Buffer_Locality_read = 0.978723
Row_Buffer_Locality_write = -nan
Bank_Level_Parallism = 2.037303
Bank_Level_Parallism_Col = 1.997054
Bank_Level_Parallism_Ready = 1.508865
write_to_read_ratio_blp_rw_average = 0.000000
GrpLevelPara = 1.877761 

BW Util details:
bwutil = 0.063794 
total_CMD = 8841 
util_bw = 564 
Wasted_Col = 118 
Wasted_Row = 15 
Idle = 8144 

BW Util Bottlenecks: 
RCDc_limit = 70 
RCDWRc_limit = 0 
WTRc_limit = 0 
RTWc_limit = 0 
CCDLc_limit = 87 
rwq = 0 
CCDLc_limit_alone = 87 
WTRc_limit_alone = 0 
RTWc_limit_alone = 0 

Commands details: 
total_CMD = 8841 
n_nop = 8270 
Read = 564 
Write = 0 
L2_Alloc = 0 
L2_WB = 0 
n_act = 13 
n_pre = 3 
n_ref = 0 
n_req = 564 
total_req = 564 

Dual Bus Interface Util: 
issued_total_row = 16 
issued_total_col = 564 
Row_Bus_Util =  0.001810 
CoL_Bus_Util = 0.063794 
Either_Row_CoL_Bus_Util = 0.064585 
Issued_on_Two_Bus_Simul_Util = 0.001018 
issued_two_Eff = 0.015762 
queue_avg = 0.544735 


dram_util_bins: 0 0 0 0 0 0 0 0 0 0
dram_eff_bins: 0 0 0 0 0 0 0 0 0 0
mrqq: max=16 avg=0.544735
Memory Partition 31: 
Cache L2_bank_062:
MSHR contents

Cache L2_bank_063:
MSHR contents

In Dram Latency Queue (total = 0): 
DRAM[31]: 16 bks, busW=16 BL=2 CL=12, tRRD=3 tCCD=1, tRCD=12 tRAS=28 tRP=12 tRC=40
n_cmd=8841 n_nop=8277 n_act=11 n_pre=1 n_ref_event=0 n_req=561 n_rd=561 n_rd_L2_A=0 n_write=0 n_wr_bk=0 bw_util=0.06345
n_activity=775 dram_eff=0.7239
bk0: 64a 8777i bk1: 64a 8768i bk2: 64a 8766i bk3: 64a 8725i bk4: 56a 8743i bk5: 57a 8683i bk6: 64a 8779i bk7: 64a 8765i bk8: 32a 8798i bk9: 32a 8792i bk10: 0a 8841i bk11: 0a 8841i bk12: 0a 8841i bk13: 0a 8841i bk14: 0a 8841i bk15: 0a 8841i 

------------------------------------------------------------------------

Row_Buffer_Locality = 0.980392
Row_Buffer_Locality_read = 0.980392
Row_Buffer_Locality_write = -nan
Bank_Level_Parallism = 2.099237
Bank_Level_Parallism_Col = 2.059633
Bank_Level_Parallism_Ready = 1.554367
write_to_read_ratio_blp_rw_average = 0.000000
GrpLevelPara = 1.870031 

BW Util details:
bwutil = 0.063454 
total_CMD = 8841 
util_bw = 561 
Wasted_Col = 94 
Wasted_Row = 0 
Idle = 8186 

BW Util Bottlenecks: 
RCDc_limit = 40 
RCDWRc_limit = 0 
WTRc_limit = 0 
RTWc_limit = 0 
CCDLc_limit = 85 
rwq = 0 
CCDLc_limit_alone = 85 
WTRc_limit_alone = 0 
RTWc_limit_alone = 0 

Commands details: 
total_CMD = 8841 
n_nop = 8277 
Read = 561 
Write = 0 
L2_Alloc = 0 
L2_WB = 0 
n_act = 11 
n_pre = 1 
n_ref = 0 
n_req = 561 
total_req = 561 

Dual Bus Interface Util: 
issued_total_row = 12 
issued_total_col = 561 
Row_Bus_Util =  0.001357 
CoL_Bus_Util = 0.063454 
Either_Row_CoL_Bus_Util = 0.063794 
Issued_on_Two_Bus_Simul_Util = 0.001018 
issued_two_Eff = 0.015957 
queue_avg = 0.412284 


dram_util_bins: 0 0 0 0 0 0 0 0 0 0
dram_eff_bins: 0 0 0 0 0 0 0 0 0 0
mrqq: max=12 avg=0.412284

========= L2 cache stats =========
L2_cache_bank[0]: Access = 992, Miss = 291, Miss_rate = 0.293, Pending_hits = 12, Reservation_fails = 148
L2_cache_bank[1]: Access = 953, Miss = 288, Miss_rate = 0.302, Pending_hits = 5, Reservation_fails = 0
L2_cache_bank[2]: Access = 966, Miss = 291, Miss_rate = 0.301, Pending_hits = 6, Reservation_fails = 0
L2_cache_bank[3]: Access = 953, Miss = 288, Miss_rate = 0.302, Pending_hits = 9, Reservation_fails = 0
L2_cache_bank[4]: Access = 967, Miss = 288, Miss_rate = 0.298, Pending_hits = 4, Reservation_fails = 0
L2_cache_bank[5]: Access = 963, Miss = 290, Miss_rate = 0.301, Pending_hits = 9, Reservation_fails = 0
L2_cache_bank[6]: Access = 963, Miss = 288, Miss_rate = 0.299, Pending_hits = 7, Reservation_fails = 0
L2_cache_bank[7]: Access = 956, Miss = 288, Miss_rate = 0.301, Pending_hits = 7, Reservation_fails = 0
L2_cache_bank[8]: Access = 937, Miss = 281, Miss_rate = 0.300, Pending_hits = 6, Reservation_fails = 0
L2_cache_bank[9]: Access = 955, Miss = 288, Miss_rate = 0.302, Pending_hits = 7, Reservation_fails = 0
L2_cache_bank[10]: Access = 1177, Miss = 284, Miss_rate = 0.241, Pending_hits = 12, Reservation_fails = 119
L2_cache_bank[11]: Access = 962, Miss = 289, Miss_rate = 0.300, Pending_hits = 7, Reservation_fails = 149
L2_cache_bank[12]: Access = 981, Miss = 293, Miss_rate = 0.299, Pending_hits = 9, Reservation_fails = 0
L2_cache_bank[13]: Access = 936, Miss = 284, Miss_rate = 0.303, Pending_hits = 7, Reservation_fails = 0
L2_cache_bank[14]: Access = 966, Miss = 291, Miss_rate = 0.301, Pending_hits = 4, Reservation_fails = 0
L2_cache_bank[15]: Access = 921, Miss = 280, Miss_rate = 0.304, Pending_hits = 9, Reservation_fails = 0
L2_cache_bank[16]: Access = 972, Miss = 296, Miss_rate = 0.305, Pending_hits = 7, Reservation_fails = 0
L2_cache_bank[17]: Access = 962, Miss = 291, Miss_rate = 0.302, Pending_hits = 9, Reservation_fails = 0
L2_cache_bank[18]: Access = 967, Miss = 298, Miss_rate = 0.308, Pending_hits = 5, Reservation_fails = 0
L2_cache_bank[19]: Access = 954, Miss = 289, Miss_rate = 0.303, Pending_hits = 8, Reservation_fails = 0
L2_cache_bank[20]: Access = 970, Miss = 297, Miss_rate = 0.306, Pending_hits = 6, Reservation_fails = 0
L2_cache_bank[21]: Access = 956, Miss = 289, Miss_rate = 0.302, Pending_hits = 7, Reservation_fails = 0
L2_cache_bank[22]: Access = 973, Miss = 299, Miss_rate = 0.307, Pending_hits = 9, Reservation_fails = 0
L2_cache_bank[23]: Access = 950, Miss = 289, Miss_rate = 0.304, Pending_hits = 4, Reservation_fails = 0
L2_cache_bank[24]: Access = 963, Miss = 297, Miss_rate = 0.308, Pending_hits = 4, Reservation_fails = 0
L2_cache_bank[25]: Access = 954, Miss = 289, Miss_rate = 0.303, Pending_hits = 5, Reservation_fails = 0
L2_cache_bank[26]: Access = 978, Miss = 298, Miss_rate = 0.305, Pending_hits = 11, Reservation_fails = 0
L2_cache_bank[27]: Access = 953, Miss = 288, Miss_rate = 0.302, Pending_hits = 6, Reservation_fails = 0
L2_cache_bank[28]: Access = 973, Miss = 297, Miss_rate = 0.305, Pending_hits = 7, Reservation_fails = 0
L2_cache_bank[29]: Access = 944, Miss = 288, Miss_rate = 0.305, Pending_hits = 5, Reservation_fails = 0
L2_cache_bank[30]: Access = 970, Miss = 296, Miss_rate = 0.305, Pending_hits = 8, Reservation_fails = 0
L2_cache_bank[31]: Access = 953, Miss = 289, Miss_rate = 0.303, Pending_hits = 9, Reservation_fails = 0
L2_cache_bank[32]: Access = 951, Miss = 289, Miss_rate = 0.304, Pending_hits = 4, Reservation_fails = 0
L2_cache_bank[33]: Access = 952, Miss = 288, Miss_rate = 0.303, Pending_hits = 8, Reservation_fails = 0
L2_cache_bank[34]: Access = 958, Miss = 290, Miss_rate = 0.303, Pending_hits = 7, Reservation_fails = 0
L2_cache_bank[35]: Access = 954, Miss = 293, Miss_rate = 0.307, Pending_hits = 4, Reservation_fails = 0
L2_cache_bank[36]: Access = 948, Miss = 289, Miss_rate = 0.305, Pending_hits = 7, Reservation_fails = 0
L2_cache_bank[37]: Access = 951, Miss = 288, Miss_rate = 0.303, Pending_hits = 7, Reservation_fails = 0
L2_cache_bank[38]: Access = 953, Miss = 288, Miss_rate = 0.302, Pending_hits = 5, Reservation_fails = 0
L2_cache_bank[39]: Access = 958, Miss = 288, Miss_rate = 0.301, Pending_hits = 9, Reservation_fails = 0
L2_cache_bank[40]: Access = 950, Miss = 288, Miss_rate = 0.303, Pending_hits = 6, Reservation_fails = 0
L2_cache_bank[41]: Access = 952, Miss = 288, Miss_rate = 0.303, Pending_hits = 11, Reservation_fails = 0
L2_cache_bank[42]: Access = 953, Miss = 288, Miss_rate = 0.302, Pending_hits = 8, Reservation_fails = 0
L2_cache_bank[43]: Access = 955, Miss = 289, Miss_rate = 0.303, Pending_hits = 5, Reservation_fails = 0
L2_cache_bank[44]: Access = 954, Miss = 288, Miss_rate = 0.302, Pending_hits = 9, Reservation_fails = 0
L2_cache_bank[45]: Access = 947, Miss = 288, Miss_rate = 0.304, Pending_hits = 5, Reservation_fails = 0
L2_cache_bank[46]: Access = 955, Miss = 291, Miss_rate = 0.305, Pending_hits = 5, Reservation_fails = 0
L2_cache_bank[47]: Access = 953, Miss = 289, Miss_rate = 0.303, Pending_hits = 7, Reservation_fails = 0
L2_cache_bank[48]: Access = 916, Miss = 282, Miss_rate = 0.308, Pending_hits = 6, Reservation_fails = 0
L2_cache_bank[49]: Access = 950, Miss = 290, Miss_rate = 0.305, Pending_hits = 7, Reservation_fails = 0
L2_cache_bank[50]: Access = 917, Miss = 280, Miss_rate = 0.305, Pending_hits = 6, Reservation_fails = 0
L2_cache_bank[51]: Access = 950, Miss = 288, Miss_rate = 0.303, Pending_hits = 7, Reservation_fails = 0
L2_cache_bank[52]: Access = 912, Miss = 280, Miss_rate = 0.307, Pending_hits = 6, Reservation_fails = 0
L2_cache_bank[53]: Access = 952, Miss = 288, Miss_rate = 0.303, Pending_hits = 8, Reservation_fails = 0
L2_cache_bank[54]: Access = 919, Miss = 281, Miss_rate = 0.306, Pending_hits = 7, Reservation_fails = 0
L2_cache_bank[55]: Access = 956, Miss = 290, Miss_rate = 0.303, Pending_hits = 7, Reservation_fails = 0
L2_cache_bank[56]: Access = 952, Miss = 291, Miss_rate = 0.306, Pending_hits = 8, Reservation_fails = 0
L2_cache_bank[57]: Access = 952, Miss = 288, Miss_rate = 0.303, Pending_hits = 9, Reservation_fails = 0
L2_cache_bank[58]: Access = 948, Miss = 288, Miss_rate = 0.304, Pending_hits = 5, Reservation_fails = 0
L2_cache_bank[59]: Access = 951, Miss = 288, Miss_rate = 0.303, Pending_hits = 4, Reservation_fails = 0
L2_cache_bank[60]: Access = 961, Miss = 290, Miss_rate = 0.302, Pending_hits = 12, Reservation_fails = 0
L2_cache_bank[61]: Access = 955, Miss = 290, Miss_rate = 0.304, Pending_hits = 8, Reservation_fails = 0
L2_cache_bank[62]: Access = 950, Miss = 288, Miss_rate = 0.303, Pending_hits = 7, Reservation_fails = 0
L2_cache_bank[63]: Access = 950, Miss = 289, Miss_rate = 0.304, Pending_hits = 5, Reservation_fails = 0
L2_total_cache_accesses = 61275
L2_total_cache_misses = 18505
L2_total_cache_miss_rate = 0.3020
L2_total_cache_pending_hits = 449
L2_total_cache_reservation_fails = 416
L2_total_cache_breakdown:
	L2_cache_stats_breakdown[GLOBAL_ACC_R][HIT] = 10059
	L2_cache_stats_breakdown[GLOBAL_ACC_R][HIT_RESERVED] = 449
	L2_cache_stats_breakdown[GLOBAL_ACC_R][MISS] = 4543
	L2_cache_stats_breakdown[GLOBAL_ACC_R][RESERVATION_FAIL] = 416
	L2_cache_stats_breakdown[GLOBAL_ACC_R][SECTOR_MISS] = 13450
	L2_cache_stats_breakdown[GLOBAL_ACC_R][MSHR_HIT] = 449
	L2_cache_stats_breakdown[LOCAL_ACC_R][HIT] = 0
	L2_cache_stats_breakdown[LOCAL_ACC_R][HIT_RESERVED] = 0
	L2_cache_stats_breakdown[LOCAL_ACC_R][MISS] = 0
	L2_cache_stats_breakdown[LOCAL_ACC_R][RESERVATION_FAIL] = 0
	L2_cache_stats_breakdown[LOCAL_ACC_R][SECTOR_MISS] = 0
	L2_cache_stats_breakdown[LOCAL_ACC_R][MSHR_HIT] = 0
	L2_cache_stats_breakdown[CONST_ACC_R][HIT] = 0
	L2_cache_stats_breakdown[CONST_ACC_R][HIT_RESERVED] = 0
	L2_cache_stats_breakdown[CONST_ACC_R][MISS] = 0
	L2_cache_stats_breakdown[CONST_ACC_R][RESERVATION_FAIL] = 0
	L2_cache_stats_breakdown[CONST_ACC_R][SECTOR_MISS] = 0
	L2_cache_stats_breakdown[CONST_ACC_R][MSHR_HIT] = 0
	L2_cache_stats_breakdown[TEXTURE_ACC_R][HIT] = 0
	L2_cache_stats_breakdown[TEXTURE_ACC_R][HIT_RESERVED] = 0
	L2_cache_stats_breakdown[TEXTURE_ACC_R][MISS] = 0
	L2_cache_stats_breakdown[TEXTURE_ACC_R][RESERVATION_FAIL] = 0
	L2_cache_stats_breakdown[TEXTURE_ACC_R][SECTOR_MISS] = 0
	L2_cache_stats_breakdown[TEXTURE_ACC_R][MSHR_HIT] = 0
	L2_cache_stats_breakdown[GLOBAL_ACC_W][HIT] = 32262
	L2_cache_stats_breakdown[GLOBAL_ACC_W][HIT_RESERVED] = 0
	L2_cache_stats_breakdown[GLOBAL_ACC_W][MISS] = 128
	L2_cache_stats_breakdown[GLOBAL_ACC_W][RESERVATION_FAIL] = 0
	L2_cache_stats_breakdown[GLOBAL_ACC_W][SECTOR_MISS] = 384
	L2_cache_stats_breakdown[GLOBAL_ACC_W][MSHR_HIT] = 0
	L2_cache_stats_breakdown[LOCAL_ACC_W][HIT] = 0
	L2_cache_stats_breakdown[LOCAL_ACC_W][HIT_RESERVED] = 0
	L2_cache_stats_breakdown[LOCAL_ACC_W][MISS] = 0
	L2_cache_stats_breakdown[LOCAL_ACC_W][RESERVATION_FAIL] = 0
	L2_cache_stats_breakdown[LOCAL_ACC_W][SECTOR_MISS] = 0
	L2_cache_stats_breakdown[LOCAL_ACC_W][MSHR_HIT] = 0
	L2_cache_stats_breakdown[L1_WRBK_ACC][HIT] = 0
	L2_cache_stats_breakdown[L1_WRBK_ACC][HIT_RESERVED] = 0
	L2_cache_stats_breakdown[L1_WRBK_ACC][MISS] = 0
	L2_cache_stats_breakdown[L1_WRBK_ACC][RESERVATION_FAIL] = 0
	L2_cache_stats_breakdown[L1_WRBK_ACC][SECTOR_MISS] = 0
	L2_cache_stats_breakdown[L1_WRBK_ACC][MSHR_HIT] = 0
	L2_cache_stats_breakdown[L2_WRBK_ACC][HIT] = 0
	L2_cache_stats_breakdown[L2_WRBK_ACC][HIT_RESERVED] = 0
	L2_cache_stats_breakdown[L2_WRBK_ACC][MISS] = 0
	L2_cache_stats_breakdown[L2_WRBK_ACC][RESERVATION_FAIL] = 0
	L2_cache_stats_breakdown[L2_WRBK_ACC][SECTOR_MISS] = 0
	L2_cache_stats_breakdown[L2_WRBK_ACC][MSHR_HIT] = 0
	L2_cache_stats_breakdown[INST_ACC_R][HIT] = 0
	L2_cache_stats_breakdown[INST_ACC_R][HIT_RESERVED] = 0
	L2_cache_stats_breakdown[INST_ACC_R][MISS] = 0
	L2_cache_stats_breakdown[INST_ACC_R][RESERVATION_FAIL] = 0
	L2_cache_stats_breakdown[INST_ACC_R][SECTOR_MISS] = 0
	L2_cache_stats_breakdown[INST_ACC_R][MSHR_HIT] = 0
	L2_cache_stats_breakdown[L1_WR_ALLOC_R][HIT] = 0
	L2_cache_stats_breakdown[L1_WR_ALLOC_R][HIT_RESERVED] = 0
	L2_cache_stats_breakdown[L1_WR_ALLOC_R][MISS] = 0
	L2_cache_stats_breakdown[L1_WR_ALLOC_R][RESERVATION_FAIL] = 0
	L2_cache_stats_breakdown[L1_WR_ALLOC_R][SECTOR_MISS] = 0
	L2_cache_stats_breakdown[L1_WR_ALLOC_R][MSHR_HIT] = 0
	L2_cache_stats_breakdown[L2_WR_ALLOC_R][HIT] = 0
	L2_cache_stats_breakdown[L2_WR_ALLOC_R][HIT_RESERVED] = 0
	L2_cache_stats_breakdown[L2_WR_ALLOC_R][MISS] = 0
	L2_cache_stats_breakdown[L2_WR_ALLOC_R][RESERVATION_FAIL] = 0
	L2_cache_stats_breakdown[L2_WR_ALLOC_R][SECTOR_MISS] = 0
	L2_cache_stats_breakdown[L2_WR_ALLOC_R][MSHR_HIT] = 0
	L2_cache_stats_breakdown[GLOBAL_ACC_R][TOTAL_ACCESS] = 28501
	L2_cache_stats_breakdown[GLOBAL_ACC_W][TOTAL_ACCESS] = 32774
L2_total_cache_reservation_fail_breakdown:
	L2_cache_stats_fail_breakdown[GLOBAL_ACC_R][MSHR_MERGE_ENRTY_FAIL] = 416
L2_cache_data_port_util = 0.044
L2_cache_fill_port_util = 0.019

icnt_total_pkts_mem_to_simt=61275
icnt_total_pkts_simt_to_mem=61275
LD_mem_lat_dist  0 0 0 0 0 0 0 0 0 0 0 0 0 0 0 0 0 0 0 0 0 0 0 0 0 0 0
ST_mem_lat_dist  0 0 0 0 0 0 0 0 0 0 0 0 0 0 0 0 0 0 0 0 0 0 0 0 0 0 0
----------------------------Interconnect-DETAILS--------------------------------
Req_Network_injected_packets_num = 61275
Req_Network_cycles = 15050
Req_Network_injected_packets_per_cycle =       4.0714 
Req_Network_conflicts_per_cycle =       3.1186
Req_Network_conflicts_per_cycle_util =      14.6535
Req_Bank_Level_Parallism =      19.1305
Req_Network_in_buffer_full_per_cycle =       0.0000
Req_Network_in_buffer_avg_util =       1.9750
Req_Network_out_buffer_full_per_cycle =       0.0000
Req_Network_out_buffer_avg_util =       0.0828

Reply_Network_injected_packets_num = 61275
Reply_Network_cycles = 15050
Reply_Network_injected_packets_per_cycle =        4.0714
Reply_Network_conflicts_per_cycle =        3.5647
Reply_Network_conflicts_per_cycle_util =      16.4366
Reply_Bank_Level_Parallism =      18.7730
Reply_Network_in_buffer_full_per_cycle =       0.0000
Reply_Network_in_buffer_avg_util =       2.2730
Reply_Network_out_buffer_full_per_cycle =       0.0000
Reply_Network_out_buffer_avg_util =       0.0509
----------------------------END-of-Interconnect-DETAILS-------------------------


gpgpu_simulation_time = 0 days, 0 hrs, 0 min, 9 sec (9 sec)
gpgpu_simulation_rate = 1163758 (inst/sec)
gpgpu_simulation_rate = 1672 (cycle/sec)
gpgpu_silicon_slowdown = 865430x
GPGPU-Sim: *** simulation thread exiting ***
GPGPU-Sim: *** exit detected ***
