Accel-Sim [build accelsim-commit-2260456ea5e6a1420f5734f145a4b7d8ab1d4737_modified_1.0]

        *** GPGPU-Sim Simulator Version 4.2.0  [build gpgpu-sim_git-commit-948c0e1a_modified_5.0] ***


GPGPU-Sim: Configuration options:

-save_embedded_ptx                      0 # saves ptx files embedded in binary as <n>.ptx
-keep                                   0 # keep intermediate files created by GPGPU-Sim when interfacing with external programs
-gpgpu_ptx_save_converted_ptxplus                    0 # Saved converted ptxplus to a file
-gpgpu_occupancy_sm_number                   70 # The SM number to pass to ptxas when getting register usage for computing GPU occupancy. This parameter is required in the config.
-ptx_opcode_latency_int      4,13,4,5,145,21 # Opcode latencies for integers <ADD,MAX,MUL,MAD,DIV,SHFL>Default 1,1,19,25,145,32
-ptx_opcode_latency_fp          4,13,4,5,39 # Opcode latencies for single precision floating points <ADD,MAX,MUL,MAD,DIV>Default 1,1,1,1,30
-ptx_opcode_latency_dp         8,19,8,8,330 # Opcode latencies for double precision floating points <ADD,MAX,MUL,MAD,DIV>Default 8,8,8,8,335
-ptx_opcode_latency_sfu                  100 # Opcode latencies for SFU instructionsDefault 8
-ptx_opcode_latency_tesnor                   64 # Opcode latencies for Tensor instructionsDefault 64
-ptx_opcode_initiation_int          2,2,2,2,8,4 # Opcode initiation intervals for integers <ADD,MAX,MUL,MAD,DIV,SHFL>Default 1,1,4,4,32,4
-ptx_opcode_initiation_fp            2,2,2,2,4 # Opcode initiation intervals for single precision floating points <ADD,MAX,MUL,MAD,DIV>Default 1,1,1,1,5
-ptx_opcode_initiation_dp          4,4,4,4,130 # Opcode initiation intervals for double precision floating points <ADD,MAX,MUL,MAD,DIV>Default 8,8,8,8,130
-ptx_opcode_initiation_sfu                    8 # Opcode initiation intervals for sfu instructionsDefault 8
-ptx_opcode_initiation_tensor                   64 # Opcode initiation intervals for tensor instructionsDefault 64
-cdp_latency         7200,8000,100,12000,1600 # CDP API latency <cudaStreamCreateWithFlags, cudaGetParameterBufferV2_init_perWarp, cudaGetParameterBufferV2_perKernel, cudaLaunchDeviceV2_init_perWarp, cudaLaunchDevicV2_perKernel>Default 7200,8000,100,12000,1600
-network_mode                           2 # Interconnection network mode
-inter_config_file                   mesh # Interconnection network config file
-icnt_in_buffer_limit                  512 # in_buffer_limit
-icnt_out_buffer_limit                  512 # out_buffer_limit
-icnt_subnets                           2 # subnets
-icnt_arbiter_algo                      1 # arbiter_algo
-icnt_verbose                           0 # inct_verbose
-icnt_grant_cycles                      1 # grant_cycles
-gpgpu_ptx_use_cuobjdump                    1 # Use cuobjdump to extract ptx and sass from binaries
-gpgpu_experimental_lib_support                    0 # Try to extract code from cuda libraries [Broken because of unknown cudaGetExportTable]
-checkpoint_option                      0 #  checkpointing flag (0 = no checkpoint)
-checkpoint_kernel                      1 #  checkpointing during execution of which kernel (1- 1st kernel)
-checkpoint_CTA                         0 #  checkpointing after # of CTA (< less than total CTA)
-resume_option                          0 #  resume flag (0 = no resume)
-resume_kernel                          0 #  Resume from which kernel (1= 1st kernel)
-resume_CTA                             0 #  resume from which CTA 
-checkpoint_CTA_t                       0 #  resume from which CTA 
-checkpoint_insn_Y                      0 #  resume from which CTA 
-gpgpu_ptx_convert_to_ptxplus                    0 # Convert SASS (native ISA) to ptxplus and run ptxplus
-gpgpu_ptx_force_max_capability                   70 # Force maximum compute capability
-gpgpu_ptx_inst_debug_to_file                    0 # Dump executed instructions' debug information to file
-gpgpu_ptx_inst_debug_file       inst_debug.txt # Executed instructions' debug output file
-gpgpu_ptx_inst_debug_thread_uid                    1 # Thread UID for executed instructions' debug output
-gpgpu_simd_model                       1 # 1 = post-dominator
-gpgpu_shader_core_pipeline              2048:32 # shader core pipeline config, i.e., {<nthread>:<warpsize>}
-gpgpu_tex_cache:l1  N:4:128:256,L:R:m:N:L,T:512:8,128:2 # per-shader L1 texture cache  (READ-ONLY) config  {<nsets>:<bsize>:<assoc>,<rep>:<wr>:<alloc>:<wr_alloc>,<mshr>:<N>:<merge>,<mq>:<rf>}
-gpgpu_const_cache:l1 N:128:64:8,L:R:f:N:L,S:2:64,4 # per-shader L1 constant memory cache  (READ-ONLY) config  {<nsets>:<bsize>:<assoc>,<rep>:<wr>:<alloc>:<wr_alloc>,<mshr>:<N>:<merge>,<mq>} 
-gpgpu_cache:il1     N:64:128:16,L:R:f:N:L,S:2:48,4 # shader L1 instruction cache config  {<nsets>:<bsize>:<assoc>,<rep>:<wr>:<alloc>:<wr_alloc>,<mshr>:<N>:<merge>,<mq>} 
-gpgpu_cache:dl1     S:4:128:64,L:T:m:L:L,A:512:8,16:0,32 # per-shader L1 data cache config  {<nsets>:<bsize>:<assoc>,<rep>:<wr>:<alloc>:<wr_alloc>,<mshr>:<N>:<merge>,<mq> | none}
-gpgpu_l1_cache_write_ratio                   25 # L1D write ratio
-gpgpu_l1_banks                         4 # The number of L1 cache banks
-gpgpu_l1_banks_byte_interleaving                   32 # l1 banks byte interleaving granularity
-gpgpu_l1_banks_hashing_function                    0 # l1 banks hashing function
-gpgpu_l1_latency                      20 # L1 Hit Latency
-gpgpu_smem_latency                    20 # smem Latency
-gpgpu_cache:dl1PrefL1                 none # per-shader L1 data cache config  {<nsets>:<bsize>:<assoc>,<rep>:<wr>:<alloc>:<wr_alloc>,<mshr>:<N>:<merge>,<mq> | none}
-gpgpu_cache:dl1PrefShared                 none # per-shader L1 data cache config  {<nsets>:<bsize>:<assoc>,<rep>:<wr>:<alloc>:<wr_alloc>,<mshr>:<N>:<merge>,<mq> | none}
-gpgpu_gmem_skip_L1D                    0 # global memory access skip L1D cache (implements -Xptxas -dlcm=cg, default=no skip)
-gpgpu_perfect_mem                      0 # enable perfect memory mode (no cache miss)
-n_regfile_gating_group                    4 # group of lanes that should be read/written together)
-gpgpu_clock_gated_reg_file                    0 # enable clock gated reg file for power calculations
-gpgpu_clock_gated_lanes                    1 # enable clock gated lanes for power calculations
-gpgpu_shader_registers                65536 # Number of registers per shader core. Limits number of concurrent CTAs. (default 8192)
-gpgpu_registers_per_block                65536 # Maximum number of registers per CTA. (default 8192)
-gpgpu_ignore_resources_limitation                    0 # gpgpu_ignore_resources_limitation (default 0)
-gpgpu_shader_cta                      32 # Maximum number of concurrent CTAs in shader (default 32)
-gpgpu_num_cta_barriers                   16 # Maximum number of named barriers per CTA (default 16)
-gpgpu_n_clusters                      80 # number of processing clusters
-gpgpu_n_cores_per_cluster                    1 # number of simd cores per cluster
-gpgpu_n_cluster_ejection_buffer_size                   32 # number of packets in ejection buffer
-gpgpu_n_ldst_response_buffer_size                    2 # number of response packets in ld/st unit ejection buffer
-gpgpu_shmem_per_block                65536 # Size of shared memory per thread block or CTA (default 48kB)
-gpgpu_shmem_size                   98304 # Size of shared memory per shader core (default 16kB)
-gpgpu_shmem_option       0,8,16,32,64,96 # Option list of shared memory sizes
-gpgpu_unified_l1d_size                  128 # Size of unified data cache(L1D + shared memory) in KB
-gpgpu_adaptive_cache_config                    1 # adaptive_cache_config
-gpgpu_shmem_sizeDefault                98304 # Size of shared memory per shader core (default 16kB)
-gpgpu_shmem_size_PrefL1                16384 # Size of shared memory per shader core (default 16kB)
-gpgpu_shmem_size_PrefShared                16384 # Size of shared memory per shader core (default 16kB)
-gpgpu_shmem_num_banks                   32 # Number of banks in the shared memory in each shader core (default 16)
-gpgpu_shmem_limited_broadcast                    0 # Limit shared memory to do one broadcast per cycle (default on)
-gpgpu_shmem_warp_parts                    1 # Number of portions a warp is divided into for shared memory bank conflict check 
-gpgpu_mem_unit_ports                    1 # The number of memory transactions allowed per core cycle
-gpgpu_shmem_warp_parts                    1 # Number of portions a warp is divided into for shared memory bank conflict check 
-gpgpu_warpdistro_shader                   -1 # Specify which shader core to collect the warp size distribution from
-gpgpu_warp_issue_shader                    0 # Specify which shader core to collect the warp issue distribution from
-gpgpu_local_mem_map                    1 # Mapping from local memory space address to simulated GPU physical address space (default = enabled)
-gpgpu_num_reg_banks                   16 # Number of register banks (default = 8)
-gpgpu_reg_bank_use_warp_id                    0 # Use warp ID in mapping registers to banks (default = off)
-gpgpu_sub_core_model                    1 # Sub Core Volta/Pascal model (default = off)
-gpgpu_enable_specialized_operand_collector                    0 # enable_specialized_operand_collector
-gpgpu_operand_collector_num_units_sp                    4 # number of collector units (default = 4)
-gpgpu_operand_collector_num_units_dp                    0 # number of collector units (default = 0)
-gpgpu_operand_collector_num_units_sfu                    4 # number of collector units (default = 4)
-gpgpu_operand_collector_num_units_int                    0 # number of collector units (default = 0)
-gpgpu_operand_collector_num_units_tensor_core                    4 # number of collector units (default = 4)
-gpgpu_operand_collector_num_units_mem                    2 # number of collector units (default = 2)
-gpgpu_operand_collector_num_units_gen                    8 # number of collector units (default = 0)
-gpgpu_operand_collector_num_in_ports_sp                    1 # number of collector unit in ports (default = 1)
-gpgpu_operand_collector_num_in_ports_dp                    0 # number of collector unit in ports (default = 0)
-gpgpu_operand_collector_num_in_ports_sfu                    1 # number of collector unit in ports (default = 1)
-gpgpu_operand_collector_num_in_ports_int                    0 # number of collector unit in ports (default = 0)
-gpgpu_operand_collector_num_in_ports_tensor_core                    1 # number of collector unit in ports (default = 1)
-gpgpu_operand_collector_num_in_ports_mem                    1 # number of collector unit in ports (default = 1)
-gpgpu_operand_collector_num_in_ports_gen                    8 # number of collector unit in ports (default = 0)
-gpgpu_operand_collector_num_out_ports_sp                    1 # number of collector unit in ports (default = 1)
-gpgpu_operand_collector_num_out_ports_dp                    0 # number of collector unit in ports (default = 0)
-gpgpu_operand_collector_num_out_ports_sfu                    1 # number of collector unit in ports (default = 1)
-gpgpu_operand_collector_num_out_ports_int                    0 # number of collector unit in ports (default = 0)
-gpgpu_operand_collector_num_out_ports_tensor_core                    1 # number of collector unit in ports (default = 1)
-gpgpu_operand_collector_num_out_ports_mem                    1 # number of collector unit in ports (default = 1)
-gpgpu_operand_collector_num_out_ports_gen                    8 # number of collector unit in ports (default = 0)
-gpgpu_coalesce_arch                   70 # Coalescing arch (GT200 = 13, Fermi = 20)
-gpgpu_num_sched_per_core                    4 # Number of warp schedulers per core
-gpgpu_max_insn_issue_per_warp                    1 # Max number of instructions that can be issued per warp in one cycle by scheduler (either 1 or 2)
-gpgpu_dual_issue_diff_exec_units                    1 # should dual issue use two different execution unit resources (Default = 1)
-gpgpu_simt_core_sim_order                    1 # Select the simulation order of cores in a cluster (0=Fix, 1=Round-Robin)
-gpgpu_pipeline_widths 4,4,4,4,4,4,4,4,4,4,8,4,4 # Pipeline widths ID_OC_SP,ID_OC_DP,ID_OC_INT,ID_OC_SFU,ID_OC_MEM,OC_EX_SP,OC_EX_DP,OC_EX_INT,OC_EX_SFU,OC_EX_MEM,EX_WB,ID_OC_TENSOR_CORE,OC_EX_TENSOR_CORE
-gpgpu_tensor_core_avail                    1 # Tensor Core Available (default=0)
-gpgpu_num_sp_units                     4 # Number of SP units (default=1)
-gpgpu_num_dp_units                     4 # Number of DP units (default=0)
-gpgpu_num_int_units                    4 # Number of INT units (default=0)
-gpgpu_num_sfu_units                    4 # Number of SF units (default=1)
-gpgpu_num_tensor_core_units                    4 # Number of tensor_core units (default=1)
-gpgpu_num_mem_units                    1 # Number if ldst units (default=1) WARNING: not hooked up to anything
-gpgpu_scheduler                      lrr # Scheduler configuration: < lrr | gto | two_level_active > If two_level_active:<num_active_warps>:<inner_prioritization>:<outer_prioritization>For complete list of prioritization values see shader.h enum scheduler_prioritization_typeDefault: gto
-gpgpu_concurrent_kernel_sm                    0 # Support concurrent kernels on a SM (default = disabled)
-gpgpu_perfect_inst_const_cache                    1 # perfect inst and const cache mode, so all inst and const hits in the cache(default = disabled)
-gpgpu_inst_fetch_throughput                    4 # the number of fetched intruction per warp each cycle
-gpgpu_reg_file_port_throughput                    2 # the number ports of the register file
-specialized_unit_1         1,4,4,4,4,BRA # specialized unit config {<enabled>,<num_units>:<latency>:<initiation>,<ID_OC_SPEC>:<OC_EX_SPEC>,<NAME>}
-specialized_unit_2       1,4,200,4,4,TEX # specialized unit config {<enabled>,<num_units>:<latency>:<initiation>,<ID_OC_SPEC>:<OC_EX_SPEC>,<NAME>}
-specialized_unit_3      1,4,8,4,4,TENSOR # specialized unit config {<enabled>,<num_units>:<latency>:<initiation>,<ID_OC_SPEC>:<OC_EX_SPEC>,<NAME>}
-specialized_unit_4         0,4,4,4,4,BRA # specialized unit config {<enabled>,<num_units>:<latency>:<initiation>,<ID_OC_SPEC>:<OC_EX_SPEC>,<NAME>}
-specialized_unit_5         0,4,4,4,4,BRA # specialized unit config {<enabled>,<num_units>:<latency>:<initiation>,<ID_OC_SPEC>:<OC_EX_SPEC>,<NAME>}
-specialized_unit_6         0,4,4,4,4,BRA # specialized unit config {<enabled>,<num_units>:<latency>:<initiation>,<ID_OC_SPEC>:<OC_EX_SPEC>,<NAME>}
-specialized_unit_7         0,4,4,4,4,BRA # specialized unit config {<enabled>,<num_units>:<latency>:<initiation>,<ID_OC_SPEC>:<OC_EX_SPEC>,<NAME>}
-specialized_unit_8         0,4,4,4,4,BRA # specialized unit config {<enabled>,<num_units>:<latency>:<initiation>,<ID_OC_SPEC>:<OC_EX_SPEC>,<NAME>}
-gpgpu_perf_sim_memcpy                    1 # Fill the L2 cache on memcpy
-gpgpu_simple_dram_model                    0 # simple_dram_model with fixed latency and BW
-gpgpu_dram_scheduler                    1 # 0 = fifo, 1 = FR-FCFS (defaul)
-gpgpu_dram_partition_queues          64:64:64:64 # i2$:$2d:d2$:$2i
-l2_ideal                               0 # Use a ideal L2 cache that always hit
-gpgpu_cache:dl2     S:32:128:24,L:B:m:L:P,A:192:4,32:0,32 # unified banked L2 data cache config  {<nsets>:<bsize>:<assoc>,<rep>:<wr>:<alloc>:<wr_alloc>,<mshr>:<N>:<merge>,<mq>}
-gpgpu_cache:dl2_texture_only                    0 # L2 cache used for texture only
-gpgpu_n_mem                           32 # number of memory modules (e.g. memory controllers) in gpu
-gpgpu_n_sub_partition_per_mchannel                    2 # number of memory subpartition in each memory module
-gpgpu_n_mem_per_ctrlr                    1 # number of memory chips per memory controller
-gpgpu_memlatency_stat                   14 # track and display latency statistics 0x2 enables MC, 0x4 enables queue logs
-gpgpu_frfcfs_dram_sched_queue_size                   64 # 0 = unlimited (default); # entries per chip
-gpgpu_dram_return_queue_size                  192 # 0 = unlimited (default); # entries per chip
-gpgpu_dram_buswidth                   16 # default = 4 bytes (8 bytes per cycle at DDR)
-gpgpu_dram_burst_length                    2 # Burst length of each DRAM request (default = 4 data bus cycle)
-dram_data_command_freq_ratio                    2 # Frequency ratio between DRAM data bus and command bus (default = 2 times, i.e. DDR)
-gpgpu_dram_timing_opt nbk=16:CCD=1:RRD=3:RCD=12:RAS=28:RP=12:RC=40: CL=12:WL=2:CDLR=3:WR=10:nbkgrp=4:CCDL=2:RTPL=3 # DRAM timing parameters = {nbk:tCCD:tRRD:tRCD:tRAS:tRP:tRC:CL:WL:tCDLR:tWR:nbkgrp:tCCDL:tRTPL}
-gpgpu_l2_rop_latency                  160 # ROP queue latency (default 85)
-dram_latency                         100 # DRAM latency (default 30)
-dram_dual_bus_interface                    1 # dual_bus_interface (default = 0) 
-dram_bnk_indexing_policy                    0 # dram_bnk_indexing_policy (0 = normal indexing, 1 = Xoring with the higher bits) (Default = 0)
-dram_bnkgrp_indexing_policy                    1 # dram_bnkgrp_indexing_policy (0 = take higher bits, 1 = take lower bits) (Default = 0)
-dram_seperate_write_queue_enable                    0 # Seperate_Write_Queue_Enable
-dram_write_queue_size             32:28:16 # Write_Queue_Size
-dram_elimnate_rw_turnaround                    0 # elimnate_rw_turnaround i.e set tWTR and tRTW = 0
-icnt_flit_size                        40 # icnt_flit_size
-gpgpu_mem_addr_mapping dramid@8;00000000.00000000.00000000.00000000.0000RRRR.RRRRRRRR.RBBBCCCB.CCCSSSSS # mapping memory address to dram model {dramid@<start bit>;<memory address map>}
-gpgpu_mem_addr_test                    0 # run sweep test to check address mapping for aliased address
-gpgpu_mem_address_mask                    1 # 0 = old addressing mask, 1 = new addressing mask, 2 = new add. mask + flipped bank sel and chip sel bits
-gpgpu_memory_partition_indexing                    2 # 0 = no indexing, 1 = bitwise xoring, 2 = IPoly, 3 = custom indexing
-accelwattch_xml_file accelwattch_sass_sim.xml # AccelWattch XML file
-power_simulation_enabled                    0 # Turn on power simulator (1=On, 0=Off)
-power_per_cycle_dump                    0 # Dump detailed power output each cycle
-hw_perf_file_name            hw_perf.csv # Hardware Performance Statistics file
-hw_perf_bench_name                       # Kernel Name in Hardware Performance Statistics file
-power_simulation_mode                    0 # Switch performance counter input for power simulation (0=Sim, 1=HW, 2=HW-Sim Hybrid)
-dvfs_enabled                           0 # Turn on DVFS for power model
-aggregate_power_stats                    0 # Accumulate power across all kernels
-accelwattch_hybrid_perfsim_L1_RH                    0 # Get L1 Read Hits for Accelwattch-Hybrid from Accel-Sim
-accelwattch_hybrid_perfsim_L1_RM                    0 # Get L1 Read Misses for Accelwattch-Hybrid from Accel-Sim
-accelwattch_hybrid_perfsim_L1_WH                    0 # Get L1 Write Hits for Accelwattch-Hybrid from Accel-Sim
-accelwattch_hybrid_perfsim_L1_WM                    0 # Get L1 Write Misses for Accelwattch-Hybrid from Accel-Sim
-accelwattch_hybrid_perfsim_L2_RH                    0 # Get L2 Read Hits for Accelwattch-Hybrid from Accel-Sim
-accelwattch_hybrid_perfsim_L2_RM                    0 # Get L2 Read Misses for Accelwattch-Hybrid from Accel-Sim
-accelwattch_hybrid_perfsim_L2_WH                    0 # Get L2 Write Hits for Accelwattch-Hybrid from Accel-Sim
-accelwattch_hybrid_perfsim_L2_WM                    0 # Get L2 Write Misses for Accelwattch-Hybrid from Accel-Sim
-accelwattch_hybrid_perfsim_CC_ACC                    0 # Get Constant Cache Acesses for Accelwattch-Hybrid from Accel-Sim
-accelwattch_hybrid_perfsim_SHARED_ACC                    0 # Get Shared Memory Acesses for Accelwattch-Hybrid from Accel-Sim
-accelwattch_hybrid_perfsim_DRAM_RD                    0 # Get DRAM Reads for Accelwattch-Hybrid from Accel-Sim
-accelwattch_hybrid_perfsim_DRAM_WR                    0 # Get DRAM Writes for Accelwattch-Hybrid from Accel-Sim
-accelwattch_hybrid_perfsim_NOC                    0 # Get Interconnect Acesses for Accelwattch-Hybrid from Accel-Sim
-accelwattch_hybrid_perfsim_PIPE_DUTY                    0 # Get Pipeline Duty Cycle Acesses for Accelwattch-Hybrid from Accel-Sim
-accelwattch_hybrid_perfsim_NUM_SM_IDLE                    0 # Get Number of Idle SMs for Accelwattch-Hybrid from Accel-Sim
-accelwattch_hybrid_perfsim_CYCLES                    0 # Get Executed Cycles for Accelwattch-Hybrid from Accel-Sim
-accelwattch_hybrid_perfsim_VOLTAGE                    0 # Get Chip Voltage for Accelwattch-Hybrid from Accel-Sim
-power_trace_enabled                    0 # produce a file for the power trace (1=On, 0=Off)
-power_trace_zlevel                     6 # Compression level of the power trace output log (0=no comp, 9=highest)
-steady_power_levels_enabled                    0 # produce a file for the steady power levels (1=On, 0=Off)
-steady_state_definition                  8:4 # allowed deviation:number of samples
-gpgpu_max_cycle                        0 # terminates gpu simulation early (0 = no limit)
-gpgpu_max_insn                         0 # terminates gpu simulation early (0 = no limit)
-gpgpu_max_cta                          0 # terminates gpu simulation early (0 = no limit)
-gpgpu_max_completed_cta                    0 # terminates gpu simulation early (0 = no limit)
-gpgpu_runtime_stat                   500 # display runtime statistics such as dram utilization {<freq>:<flag>}
-liveness_message_freq                    1 # Minimum number of seconds between simulation liveness messages (0 = always print)
-gpgpu_compute_capability_major                    7 # Major compute capability version number
-gpgpu_compute_capability_minor                    0 # Minor compute capability version number
-gpgpu_flush_l1_cache                    1 # Flush L1 cache at the end of each kernel call
-gpgpu_flush_l2_cache                    0 # Flush L2 cache at the end of each kernel call
-gpgpu_deadlock_detect                    1 # Stop the simulation at deadlock (1=on (default), 0=off)
-gpgpu_ptx_instruction_classification                    0 # if enabled will classify ptx instruction types per kernel (Max 255 kernels now)
-gpgpu_ptx_sim_mode                     0 # Select between Performance (default) or Functional simulation (1)
-gpgpu_clock_domains 1447.0:1447.0:1447.0:850.0 # Clock Domain Frequencies in MhZ {<Core Clock>:<ICNT Clock>:<L2 Clock>:<DRAM Clock>}
-gpgpu_max_concurrent_kernel                  128 # maximum kernels that can run concurrently on GPU, set this value according to max resident grids for your compute capability
-gpgpu_cflog_interval                    0 # Interval between each snapshot in control flow logger
-visualizer_enabled                     0 # Turn on visualizer output (1=On, 0=Off)
-visualizer_outputfile                 NULL # Specifies the output log file for visualizer
-visualizer_zlevel                      6 # Compression level of the visualizer output log (0=no comp, 9=highest)
-gpgpu_stack_size_limit                 1024 # GPU thread stack size
-gpgpu_heap_size_limit              8388608 # GPU malloc heap size 
-gpgpu_runtime_sync_depth_limit                    2 # GPU device runtime synchronize depth
-gpgpu_runtime_pending_launch_count_limit                 2048 # GPU device runtime pending launch count
-trace_enabled                          0 # Turn on traces
-trace_components                    none # comma seperated list of traces to enable. Complete list found in trace_streams.tup. Default none
-trace_sampling_core                    0 # The core which is printed using CORE_DPRINTF. Default 0
-trace_sampling_memory_partition                   -1 # The memory partition which is printed using MEMPART_DPRINTF. Default -1 (i.e. all)
-enable_ptx_file_line_stats                    1 # Turn on PTX source line statistic profiling. (1 = On)
-ptx_line_stats_filename gpgpu_inst_stats.txt # Output file for PTX source line statistics.
-gpgpu_kernel_launch_latency                 5000 # Kernel launch latency in cycles. Default: 0
-gpgpu_cdp_enabled                      0 # Turn on CDP
-gpgpu_TB_launch_latency                    0 # thread block launch latency in cycles. Default: 0
-trace               ./hw_run/rodinia_2.0-ft/9.1/srad_v2-rodinia-2.0-ft/__data_matrix128x128_txt_0_127_0_127__5_2___data_result_matrix128x128_1_150_1_100__5_2_txt/traces/kernelslist.g # traces kernel filetraces kernel file directory
-trace_opcode_latency_initiation_int                  2,2 # Opcode latencies and initiation for integers in trace driven mode <latency,initiation>
-trace_opcode_latency_initiation_sp                  2,2 # Opcode latencies and initiation for sp in trace driven mode <latency,initiation>
-trace_opcode_latency_initiation_dp                  8,4 # Opcode latencies and initiation for dp in trace driven mode <latency,initiation>
-trace_opcode_latency_initiation_sfu                 20,8 # Opcode latencies and initiation for sfu in trace driven mode <latency,initiation>
-trace_opcode_latency_initiation_tensor                  2,2 # Opcode latencies and initiation for tensor in trace driven mode <latency,initiation>
-trace_opcode_latency_initiation_spec_op_1                  4,4 # specialized unit config <latency,initiation>
-trace_opcode_latency_initiation_spec_op_2                200,4 # specialized unit config <latency,initiation>
-trace_opcode_latency_initiation_spec_op_3                  2,2 # specialized unit config <latency,initiation>
-trace_opcode_latency_initiation_spec_op_4                  4,4 # specialized unit config <latency,initiation>
-trace_opcode_latency_initiation_spec_op_5                  4,4 # specialized unit config <latency,initiation>
-trace_opcode_latency_initiation_spec_op_6                  4,4 # specialized unit config <latency,initiation>
-trace_opcode_latency_initiation_spec_op_7                  4,4 # specialized unit config <latency,initiation>
-trace_opcode_latency_initiation_spec_op_8                  4,4 # specialized unit config <latency,initiation>
DRAM Timing Options:
nbk                                    16 # number of banks
CCD                                     1 # column to column delay
RRD                                     3 # minimal delay between activation of rows in different banks
RCD                                    12 # row to column delay
RAS                                    28 # time needed to activate row
RP                                     12 # time needed to precharge (deactivate) row
RC                                     40 # row cycle time
CDLR                                    3 # switching from write to read (changes tWTR)
WR                                     10 # last data-in to row precharge
CL                                     12 # CAS latency
WL                                      2 # Write latency
nbkgrp                                  4 # number of bank groups
CCDL                                    2 # column to column delay between accesses to different bank groups
RTPL                                    3 # read to precharge delay between accesses to different bank groups
Total number of memory sub partition = 64
addr_dec_mask[CHIP]  = 0000000000001f00 	high:13 low:8
addr_dec_mask[BK]    = 00000000000e2000 	high:20 low:13
addr_dec_mask[ROW]   = 00000001fff00000 	high:33 low:20
addr_dec_mask[COL]   = 000000000001c0ff 	high:17 low:0
addr_dec_mask[BURST] = 000000000000001f 	high:5 low:0
sub_partition_id_mask = 0000000000002000
GPGPU-Sim uArch: clock freqs: 1447000000.000000:1447000000.000000:1447000000.000000:850000000.000000
GPGPU-Sim uArch: clock periods: 0.00000000069108500346:0.00000000069108500346:0.00000000069108500346:0.00000000117647058824
*** Initializing Memory Statistics ***
GPGPU-Sim uArch: performance model initialization complete.
launching memcpy command : MemcpyHtoD,0x00007fdc41700000,65536
Processing kernel ./hw_run/rodinia_2.0-ft/9.1/srad_v2-rodinia-2.0-ft/__data_matrix128x128_txt_0_127_0_127__5_2___data_result_matrix128x128_1_150_1_100__5_2_txt/traces/kernel-1.traceg
-kernel name = _Z11srad_cuda_1PfS_S_S_S_S_iif
-kernel id = 1
-grid dim = (8,8,1)
-block dim = (16,16,1)
-shmem = 6144
-nregs = 25
-binary version = 70
-cuda stream id = 0
Header info loaded for kernel command : ./hw_run/rodinia_2.0-ft/9.1/srad_v2-rodinia-2.0-ft/__data_matrix128x128_txt_0_127_0_127__5_2___data_result_matrix128x128_1_150_1_100__5_2_txt/traces/kernel-1.traceg
launching kernel name: _Z11srad_cuda_1PfS_S_S_S_S_iif uid: 1
GPGPU-Sim uArch: Shader 0 bind to kernel 1 '_Z11srad_cuda_1PfS_S_S_S_S_iif'
GPGPU-Sim uArch: CTA/core = 8, limited by: threads
GPGPU-Sim: Reconfigure L1 cache to 120KB
thread block = 0,0,0
GPGPU-Sim uArch: Shader 1 bind to kernel 1 '_Z11srad_cuda_1PfS_S_S_S_S_iif'
thread block = 1,0,0
GPGPU-Sim uArch: Shader 2 bind to kernel 1 '_Z11srad_cuda_1PfS_S_S_S_S_iif'
thread block = 2,0,0
GPGPU-Sim uArch: Shader 3 bind to kernel 1 '_Z11srad_cuda_1PfS_S_S_S_S_iif'
thread block = 3,0,0
GPGPU-Sim uArch: Shader 4 bind to kernel 1 '_Z11srad_cuda_1PfS_S_S_S_S_iif'
thread block = 4,0,0
GPGPU-Sim uArch: Shader 5 bind to kernel 1 '_Z11srad_cuda_1PfS_S_S_S_S_iif'
thread block = 5,0,0
GPGPU-Sim uArch: Shader 6 bind to kernel 1 '_Z11srad_cuda_1PfS_S_S_S_S_iif'
thread block = 6,0,0
GPGPU-Sim uArch: Shader 7 bind to kernel 1 '_Z11srad_cuda_1PfS_S_S_S_S_iif'
thread block = 7,0,0
GPGPU-Sim uArch: Shader 8 bind to kernel 1 '_Z11srad_cuda_1PfS_S_S_S_S_iif'
thread block = 0,1,0
GPGPU-Sim uArch: Shader 9 bind to kernel 1 '_Z11srad_cuda_1PfS_S_S_S_S_iif'
thread block = 1,1,0
GPGPU-Sim uArch: Shader 10 bind to kernel 1 '_Z11srad_cuda_1PfS_S_S_S_S_iif'
thread block = 2,1,0
GPGPU-Sim uArch: Shader 11 bind to kernel 1 '_Z11srad_cuda_1PfS_S_S_S_S_iif'
thread block = 3,1,0
GPGPU-Sim uArch: Shader 12 bind to kernel 1 '_Z11srad_cuda_1PfS_S_S_S_S_iif'
thread block = 4,1,0
GPGPU-Sim uArch: Shader 13 bind to kernel 1 '_Z11srad_cuda_1PfS_S_S_S_S_iif'
thread block = 5,1,0
GPGPU-Sim uArch: Shader 14 bind to kernel 1 '_Z11srad_cuda_1PfS_S_S_S_S_iif'
thread block = 6,1,0
GPGPU-Sim uArch: Shader 15 bind to kernel 1 '_Z11srad_cuda_1PfS_S_S_S_S_iif'
thread block = 7,1,0
GPGPU-Sim uArch: Shader 16 bind to kernel 1 '_Z11srad_cuda_1PfS_S_S_S_S_iif'
thread block = 0,2,0
GPGPU-Sim uArch: Shader 17 bind to kernel 1 '_Z11srad_cuda_1PfS_S_S_S_S_iif'
thread block = 1,2,0
GPGPU-Sim uArch: Shader 18 bind to kernel 1 '_Z11srad_cuda_1PfS_S_S_S_S_iif'
thread block = 2,2,0
GPGPU-Sim uArch: Shader 19 bind to kernel 1 '_Z11srad_cuda_1PfS_S_S_S_S_iif'
thread block = 3,2,0
GPGPU-Sim uArch: Shader 20 bind to kernel 1 '_Z11srad_cuda_1PfS_S_S_S_S_iif'
thread block = 4,2,0
GPGPU-Sim uArch: Shader 21 bind to kernel 1 '_Z11srad_cuda_1PfS_S_S_S_S_iif'
thread block = 5,2,0
GPGPU-Sim uArch: Shader 22 bind to kernel 1 '_Z11srad_cuda_1PfS_S_S_S_S_iif'
thread block = 6,2,0
GPGPU-Sim uArch: Shader 23 bind to kernel 1 '_Z11srad_cuda_1PfS_S_S_S_S_iif'
thread block = 7,2,0
GPGPU-Sim uArch: Shader 24 bind to kernel 1 '_Z11srad_cuda_1PfS_S_S_S_S_iif'
thread block = 0,3,0
GPGPU-Sim uArch: Shader 25 bind to kernel 1 '_Z11srad_cuda_1PfS_S_S_S_S_iif'
thread block = 1,3,0
GPGPU-Sim uArch: Shader 26 bind to kernel 1 '_Z11srad_cuda_1PfS_S_S_S_S_iif'
thread block = 2,3,0
GPGPU-Sim uArch: Shader 27 bind to kernel 1 '_Z11srad_cuda_1PfS_S_S_S_S_iif'
thread block = 3,3,0
GPGPU-Sim uArch: Shader 28 bind to kernel 1 '_Z11srad_cuda_1PfS_S_S_S_S_iif'
thread block = 4,3,0
GPGPU-Sim uArch: Shader 29 bind to kernel 1 '_Z11srad_cuda_1PfS_S_S_S_S_iif'
thread block = 5,3,0
GPGPU-Sim uArch: Shader 30 bind to kernel 1 '_Z11srad_cuda_1PfS_S_S_S_S_iif'
thread block = 6,3,0
GPGPU-Sim uArch: Shader 31 bind to kernel 1 '_Z11srad_cuda_1PfS_S_S_S_S_iif'
thread block = 7,3,0
GPGPU-Sim uArch: Shader 32 bind to kernel 1 '_Z11srad_cuda_1PfS_S_S_S_S_iif'
thread block = 0,4,0
GPGPU-Sim uArch: Shader 33 bind to kernel 1 '_Z11srad_cuda_1PfS_S_S_S_S_iif'
thread block = 1,4,0
GPGPU-Sim uArch: Shader 34 bind to kernel 1 '_Z11srad_cuda_1PfS_S_S_S_S_iif'
thread block = 2,4,0
GPGPU-Sim uArch: Shader 35 bind to kernel 1 '_Z11srad_cuda_1PfS_S_S_S_S_iif'
thread block = 3,4,0
GPGPU-Sim uArch: Shader 36 bind to kernel 1 '_Z11srad_cuda_1PfS_S_S_S_S_iif'
thread block = 4,4,0
GPGPU-Sim uArch: Shader 37 bind to kernel 1 '_Z11srad_cuda_1PfS_S_S_S_S_iif'
thread block = 5,4,0
GPGPU-Sim uArch: Shader 38 bind to kernel 1 '_Z11srad_cuda_1PfS_S_S_S_S_iif'
thread block = 6,4,0
GPGPU-Sim uArch: Shader 39 bind to kernel 1 '_Z11srad_cuda_1PfS_S_S_S_S_iif'
thread block = 7,4,0
GPGPU-Sim uArch: Shader 40 bind to kernel 1 '_Z11srad_cuda_1PfS_S_S_S_S_iif'
thread block = 0,5,0
GPGPU-Sim uArch: Shader 41 bind to kernel 1 '_Z11srad_cuda_1PfS_S_S_S_S_iif'
thread block = 1,5,0
GPGPU-Sim uArch: Shader 42 bind to kernel 1 '_Z11srad_cuda_1PfS_S_S_S_S_iif'
thread block = 2,5,0
GPGPU-Sim uArch: Shader 43 bind to kernel 1 '_Z11srad_cuda_1PfS_S_S_S_S_iif'
thread block = 3,5,0
GPGPU-Sim uArch: Shader 44 bind to kernel 1 '_Z11srad_cuda_1PfS_S_S_S_S_iif'
thread block = 4,5,0
GPGPU-Sim uArch: Shader 45 bind to kernel 1 '_Z11srad_cuda_1PfS_S_S_S_S_iif'
thread block = 5,5,0
GPGPU-Sim uArch: Shader 46 bind to kernel 1 '_Z11srad_cuda_1PfS_S_S_S_S_iif'
thread block = 6,5,0
GPGPU-Sim uArch: Shader 47 bind to kernel 1 '_Z11srad_cuda_1PfS_S_S_S_S_iif'
thread block = 7,5,0
GPGPU-Sim uArch: Shader 48 bind to kernel 1 '_Z11srad_cuda_1PfS_S_S_S_S_iif'
thread block = 0,6,0
GPGPU-Sim uArch: Shader 49 bind to kernel 1 '_Z11srad_cuda_1PfS_S_S_S_S_iif'
thread block = 1,6,0
GPGPU-Sim uArch: Shader 50 bind to kernel 1 '_Z11srad_cuda_1PfS_S_S_S_S_iif'
thread block = 2,6,0
GPGPU-Sim uArch: Shader 51 bind to kernel 1 '_Z11srad_cuda_1PfS_S_S_S_S_iif'
thread block = 3,6,0
GPGPU-Sim uArch: Shader 52 bind to kernel 1 '_Z11srad_cuda_1PfS_S_S_S_S_iif'
thread block = 4,6,0
GPGPU-Sim uArch: Shader 53 bind to kernel 1 '_Z11srad_cuda_1PfS_S_S_S_S_iif'
thread block = 5,6,0
GPGPU-Sim uArch: Shader 54 bind to kernel 1 '_Z11srad_cuda_1PfS_S_S_S_S_iif'
thread block = 6,6,0
GPGPU-Sim uArch: Shader 55 bind to kernel 1 '_Z11srad_cuda_1PfS_S_S_S_S_iif'
thread block = 7,6,0
GPGPU-Sim uArch: Shader 56 bind to kernel 1 '_Z11srad_cuda_1PfS_S_S_S_S_iif'
thread block = 0,7,0
GPGPU-Sim uArch: Shader 57 bind to kernel 1 '_Z11srad_cuda_1PfS_S_S_S_S_iif'
thread block = 1,7,0
GPGPU-Sim uArch: Shader 58 bind to kernel 1 '_Z11srad_cuda_1PfS_S_S_S_S_iif'
thread block = 2,7,0
GPGPU-Sim uArch: Shader 59 bind to kernel 1 '_Z11srad_cuda_1PfS_S_S_S_S_iif'
thread block = 3,7,0
GPGPU-Sim uArch: Shader 60 bind to kernel 1 '_Z11srad_cuda_1PfS_S_S_S_S_iif'
thread block = 4,7,0
GPGPU-Sim uArch: Shader 61 bind to kernel 1 '_Z11srad_cuda_1PfS_S_S_S_S_iif'
thread block = 5,7,0
GPGPU-Sim uArch: Shader 62 bind to kernel 1 '_Z11srad_cuda_1PfS_S_S_S_S_iif'
thread block = 6,7,0
GPGPU-Sim uArch: Shader 63 bind to kernel 1 '_Z11srad_cuda_1PfS_S_S_S_S_iif'
thread block = 7,7,0
Destroy streams for kernel 1: size 0
kernel_name = _Z11srad_cuda_1PfS_S_S_S_S_iif 
kernel_launch_uid = 1 
gpu_sim_cycle = 7891
gpu_sim_insn = 3901553
gpu_sim_insn_fp = 1261568
gpu_bytes_leidos = 688128
gpu_bytes_leidos_Desde_MemFetch = 466944
gpu_arithmetic_intensity = 1.83333333333333
gpu_gflops = 231.338094
gpu_ipc =     494.4308
gpu_tot_sim_cycle = 7891
gpu_tot_sim_insn = 3901553
gpu_tot_ipc =     494.4308
gpu_tot_issued_cta = 64
gpu_occupancy = 12.2192% 
gpu_tot_occupancy = 12.2192% 
max_total_param_size = 0
gpu_stall_dramfull = 0
gpu_stall_icnt2sh    = 0
partiton_level_parallism =       1.8492
partiton_level_parallism_total  =       1.8492
partiton_level_parallism_util =      11.6829
partiton_level_parallism_util_total  =      11.6829
L2_BW  =      85.6251 GB/Sec
L2_BW_total  =      85.6251 GB/Sec
gpu_total_sim_rate=975388

========= Core cache stats =========
L1I_cache:
	L1I_total_cache_accesses = 0
	L1I_total_cache_misses = 0
	L1I_total_cache_pending_hits = 0
	L1I_total_cache_reservation_fails = 0
L1D_cache:
	L1D_cache_core[0]: Access = 288, Miss = 228, Miss_rate = 0.792, Pending_hits = 42, Reservation_fails = 65
	L1D_cache_core[1]: Access = 272, Miss = 228, Miss_rate = 0.838, Pending_hits = 42, Reservation_fails = 65
	L1D_cache_core[2]: Access = 272, Miss = 228, Miss_rate = 0.838, Pending_hits = 42, Reservation_fails = 65
	L1D_cache_core[3]: Access = 272, Miss = 228, Miss_rate = 0.838, Pending_hits = 42, Reservation_fails = 63
	L1D_cache_core[4]: Access = 272, Miss = 228, Miss_rate = 0.838, Pending_hits = 42, Reservation_fails = 65
	L1D_cache_core[5]: Access = 272, Miss = 228, Miss_rate = 0.838, Pending_hits = 42, Reservation_fails = 63
	L1D_cache_core[6]: Access = 272, Miss = 228, Miss_rate = 0.838, Pending_hits = 42, Reservation_fails = 65
	L1D_cache_core[7]: Access = 288, Miss = 228, Miss_rate = 0.792, Pending_hits = 42, Reservation_fails = 65
	L1D_cache_core[8]: Access = 272, Miss = 228, Miss_rate = 0.838, Pending_hits = 28, Reservation_fails = 64
	L1D_cache_core[9]: Access = 256, Miss = 228, Miss_rate = 0.891, Pending_hits = 28, Reservation_fails = 67
	L1D_cache_core[10]: Access = 256, Miss = 228, Miss_rate = 0.891, Pending_hits = 28, Reservation_fails = 67
	L1D_cache_core[11]: Access = 256, Miss = 228, Miss_rate = 0.891, Pending_hits = 28, Reservation_fails = 66
	L1D_cache_core[12]: Access = 256, Miss = 228, Miss_rate = 0.891, Pending_hits = 28, Reservation_fails = 67
	L1D_cache_core[13]: Access = 256, Miss = 228, Miss_rate = 0.891, Pending_hits = 28, Reservation_fails = 67
	L1D_cache_core[14]: Access = 256, Miss = 228, Miss_rate = 0.891, Pending_hits = 28, Reservation_fails = 63
	L1D_cache_core[15]: Access = 272, Miss = 228, Miss_rate = 0.838, Pending_hits = 28, Reservation_fails = 65
	L1D_cache_core[16]: Access = 272, Miss = 228, Miss_rate = 0.838, Pending_hits = 28, Reservation_fails = 65
	L1D_cache_core[17]: Access = 256, Miss = 228, Miss_rate = 0.891, Pending_hits = 28, Reservation_fails = 67
	L1D_cache_core[18]: Access = 256, Miss = 228, Miss_rate = 0.891, Pending_hits = 28, Reservation_fails = 67
	L1D_cache_core[19]: Access = 256, Miss = 228, Miss_rate = 0.891, Pending_hits = 28, Reservation_fails = 67
	L1D_cache_core[20]: Access = 256, Miss = 228, Miss_rate = 0.891, Pending_hits = 28, Reservation_fails = 66
	L1D_cache_core[21]: Access = 256, Miss = 228, Miss_rate = 0.891, Pending_hits = 28, Reservation_fails = 64
	L1D_cache_core[22]: Access = 256, Miss = 228, Miss_rate = 0.891, Pending_hits = 28, Reservation_fails = 67
	L1D_cache_core[23]: Access = 272, Miss = 228, Miss_rate = 0.838, Pending_hits = 28, Reservation_fails = 61
	L1D_cache_core[24]: Access = 272, Miss = 228, Miss_rate = 0.838, Pending_hits = 28, Reservation_fails = 65
	L1D_cache_core[25]: Access = 256, Miss = 228, Miss_rate = 0.891, Pending_hits = 28, Reservation_fails = 67
	L1D_cache_core[26]: Access = 256, Miss = 228, Miss_rate = 0.891, Pending_hits = 28, Reservation_fails = 64
	L1D_cache_core[27]: Access = 256, Miss = 228, Miss_rate = 0.891, Pending_hits = 28, Reservation_fails = 63
	L1D_cache_core[28]: Access = 256, Miss = 228, Miss_rate = 0.891, Pending_hits = 28, Reservation_fails = 63
	L1D_cache_core[29]: Access = 256, Miss = 228, Miss_rate = 0.891, Pending_hits = 28, Reservation_fails = 67
	L1D_cache_core[30]: Access = 256, Miss = 228, Miss_rate = 0.891, Pending_hits = 28, Reservation_fails = 67
	L1D_cache_core[31]: Access = 272, Miss = 228, Miss_rate = 0.838, Pending_hits = 28, Reservation_fails = 65
	L1D_cache_core[32]: Access = 272, Miss = 228, Miss_rate = 0.838, Pending_hits = 28, Reservation_fails = 63
	L1D_cache_core[33]: Access = 256, Miss = 228, Miss_rate = 0.891, Pending_hits = 28, Reservation_fails = 65
	L1D_cache_core[34]: Access = 256, Miss = 228, Miss_rate = 0.891, Pending_hits = 28, Reservation_fails = 65
	L1D_cache_core[35]: Access = 256, Miss = 228, Miss_rate = 0.891, Pending_hits = 28, Reservation_fails = 66
	L1D_cache_core[36]: Access = 256, Miss = 228, Miss_rate = 0.891, Pending_hits = 28, Reservation_fails = 67
	L1D_cache_core[37]: Access = 256, Miss = 228, Miss_rate = 0.891, Pending_hits = 28, Reservation_fails = 63
	L1D_cache_core[38]: Access = 256, Miss = 228, Miss_rate = 0.891, Pending_hits = 28, Reservation_fails = 67
	L1D_cache_core[39]: Access = 272, Miss = 228, Miss_rate = 0.838, Pending_hits = 28, Reservation_fails = 62
	L1D_cache_core[40]: Access = 272, Miss = 228, Miss_rate = 0.838, Pending_hits = 28, Reservation_fails = 64
	L1D_cache_core[41]: Access = 256, Miss = 228, Miss_rate = 0.891, Pending_hits = 28, Reservation_fails = 67
	L1D_cache_core[42]: Access = 256, Miss = 228, Miss_rate = 0.891, Pending_hits = 28, Reservation_fails = 67
	L1D_cache_core[43]: Access = 256, Miss = 228, Miss_rate = 0.891, Pending_hits = 28, Reservation_fails = 65
	L1D_cache_core[44]: Access = 256, Miss = 228, Miss_rate = 0.891, Pending_hits = 28, Reservation_fails = 67
	L1D_cache_core[45]: Access = 256, Miss = 228, Miss_rate = 0.891, Pending_hits = 28, Reservation_fails = 64
	L1D_cache_core[46]: Access = 256, Miss = 228, Miss_rate = 0.891, Pending_hits = 28, Reservation_fails = 67
	L1D_cache_core[47]: Access = 272, Miss = 228, Miss_rate = 0.838, Pending_hits = 28, Reservation_fails = 65
	L1D_cache_core[48]: Access = 272, Miss = 228, Miss_rate = 0.838, Pending_hits = 28, Reservation_fails = 63
	L1D_cache_core[49]: Access = 256, Miss = 228, Miss_rate = 0.891, Pending_hits = 28, Reservation_fails = 67
	L1D_cache_core[50]: Access = 256, Miss = 228, Miss_rate = 0.891, Pending_hits = 28, Reservation_fails = 67
	L1D_cache_core[51]: Access = 256, Miss = 228, Miss_rate = 0.891, Pending_hits = 28, Reservation_fails = 65
	L1D_cache_core[52]: Access = 256, Miss = 228, Miss_rate = 0.891, Pending_hits = 28, Reservation_fails = 63
	L1D_cache_core[53]: Access = 256, Miss = 228, Miss_rate = 0.891, Pending_hits = 28, Reservation_fails = 67
	L1D_cache_core[54]: Access = 256, Miss = 228, Miss_rate = 0.891, Pending_hits = 28, Reservation_fails = 67
	L1D_cache_core[55]: Access = 272, Miss = 228, Miss_rate = 0.838, Pending_hits = 28, Reservation_fails = 65
	L1D_cache_core[56]: Access = 288, Miss = 228, Miss_rate = 0.792, Pending_hits = 42, Reservation_fails = 65
	L1D_cache_core[57]: Access = 272, Miss = 228, Miss_rate = 0.838, Pending_hits = 42, Reservation_fails = 65
	L1D_cache_core[58]: Access = 272, Miss = 228, Miss_rate = 0.838, Pending_hits = 42, Reservation_fails = 66
	L1D_cache_core[59]: Access = 272, Miss = 228, Miss_rate = 0.838, Pending_hits = 42, Reservation_fails = 65
	L1D_cache_core[60]: Access = 272, Miss = 228, Miss_rate = 0.838, Pending_hits = 42, Reservation_fails = 66
	L1D_cache_core[61]: Access = 272, Miss = 228, Miss_rate = 0.838, Pending_hits = 42, Reservation_fails = 65
	L1D_cache_core[62]: Access = 272, Miss = 228, Miss_rate = 0.838, Pending_hits = 42, Reservation_fails = 59
	L1D_cache_core[63]: Access = 288, Miss = 228, Miss_rate = 0.792, Pending_hits = 42, Reservation_fails = 59
	L1D_cache_core[64]: Access = 0, Miss = 0, Miss_rate = -nan, Pending_hits = 0, Reservation_fails = 0
	L1D_cache_core[65]: Access = 0, Miss = 0, Miss_rate = -nan, Pending_hits = 0, Reservation_fails = 0
	L1D_cache_core[66]: Access = 0, Miss = 0, Miss_rate = -nan, Pending_hits = 0, Reservation_fails = 0
	L1D_cache_core[67]: Access = 0, Miss = 0, Miss_rate = -nan, Pending_hits = 0, Reservation_fails = 0
	L1D_cache_core[68]: Access = 0, Miss = 0, Miss_rate = -nan, Pending_hits = 0, Reservation_fails = 0
	L1D_cache_core[69]: Access = 0, Miss = 0, Miss_rate = -nan, Pending_hits = 0, Reservation_fails = 0
	L1D_cache_core[70]: Access = 0, Miss = 0, Miss_rate = -nan, Pending_hits = 0, Reservation_fails = 0
	L1D_cache_core[71]: Access = 0, Miss = 0, Miss_rate = -nan, Pending_hits = 0, Reservation_fails = 0
	L1D_cache_core[72]: Access = 0, Miss = 0, Miss_rate = -nan, Pending_hits = 0, Reservation_fails = 0
	L1D_cache_core[73]: Access = 0, Miss = 0, Miss_rate = -nan, Pending_hits = 0, Reservation_fails = 0
	L1D_cache_core[74]: Access = 0, Miss = 0, Miss_rate = -nan, Pending_hits = 0, Reservation_fails = 0
	L1D_cache_core[75]: Access = 0, Miss = 0, Miss_rate = -nan, Pending_hits = 0, Reservation_fails = 0
	L1D_cache_core[76]: Access = 0, Miss = 0, Miss_rate = -nan, Pending_hits = 0, Reservation_fails = 0
	L1D_cache_core[77]: Access = 0, Miss = 0, Miss_rate = -nan, Pending_hits = 0, Reservation_fails = 0
	L1D_cache_core[78]: Access = 0, Miss = 0, Miss_rate = -nan, Pending_hits = 0, Reservation_fails = 0
	L1D_cache_core[79]: Access = 0, Miss = 0, Miss_rate = -nan, Pending_hits = 0, Reservation_fails = 0
	L1D_total_cache_accesses = 16896
	L1D_total_cache_misses = 14592
	L1D_total_cache_miss_rate = 0.8636
	L1D_total_cache_pending_hits = 2016
	L1D_total_cache_reservation_fails = 4165
	L1D_cache_data_port_util = 0.002
	L1D_cache_fill_port_util = 0.027
L1C_cache:
	L1C_total_cache_accesses = 0
	L1C_total_cache_misses = 0
	L1C_total_cache_pending_hits = 0
	L1C_total_cache_reservation_fails = 0
L1T_cache:
	L1T_total_cache_accesses = 0
	L1T_total_cache_misses = 0
	L1T_total_cache_pending_hits = 0
	L1T_total_cache_reservation_fails = 0

Total_core_cache_stats:
	Total_core_cache_stats_breakdown[GLOBAL_ACC_R][HIT] = 288
	Total_core_cache_stats_breakdown[GLOBAL_ACC_R][HIT_RESERVED] = 2016
	Total_core_cache_stats_breakdown[GLOBAL_ACC_R][MISS] = 2176
	Total_core_cache_stats_breakdown[GLOBAL_ACC_R][RESERVATION_FAIL] = 75
	Total_core_cache_stats_breakdown[GLOBAL_ACC_R][SECTOR_MISS] = 2176
	Total_core_cache_stats_breakdown[GLOBAL_ACC_R][MSHR_HIT] = 2016
	Total_core_cache_stats_breakdown[LOCAL_ACC_R][HIT] = 0
	Total_core_cache_stats_breakdown[LOCAL_ACC_R][HIT_RESERVED] = 0
	Total_core_cache_stats_breakdown[LOCAL_ACC_R][MISS] = 0
	Total_core_cache_stats_breakdown[LOCAL_ACC_R][RESERVATION_FAIL] = 0
	Total_core_cache_stats_breakdown[LOCAL_ACC_R][SECTOR_MISS] = 0
	Total_core_cache_stats_breakdown[LOCAL_ACC_R][MSHR_HIT] = 0
	Total_core_cache_stats_breakdown[CONST_ACC_R][HIT] = 0
	Total_core_cache_stats_breakdown[CONST_ACC_R][HIT_RESERVED] = 0
	Total_core_cache_stats_breakdown[CONST_ACC_R][MISS] = 0
	Total_core_cache_stats_breakdown[CONST_ACC_R][RESERVATION_FAIL] = 0
	Total_core_cache_stats_breakdown[CONST_ACC_R][SECTOR_MISS] = 0
	Total_core_cache_stats_breakdown[CONST_ACC_R][MSHR_HIT] = 0
	Total_core_cache_stats_breakdown[TEXTURE_ACC_R][HIT] = 0
	Total_core_cache_stats_breakdown[TEXTURE_ACC_R][HIT_RESERVED] = 0
	Total_core_cache_stats_breakdown[TEXTURE_ACC_R][MISS] = 0
	Total_core_cache_stats_breakdown[TEXTURE_ACC_R][RESERVATION_FAIL] = 0
	Total_core_cache_stats_breakdown[TEXTURE_ACC_R][SECTOR_MISS] = 0
	Total_core_cache_stats_breakdown[TEXTURE_ACC_R][MSHR_HIT] = 0
	Total_core_cache_stats_breakdown[GLOBAL_ACC_W][HIT] = 0
	Total_core_cache_stats_breakdown[GLOBAL_ACC_W][HIT_RESERVED] = 0
	Total_core_cache_stats_breakdown[GLOBAL_ACC_W][MISS] = 5120
	Total_core_cache_stats_breakdown[GLOBAL_ACC_W][RESERVATION_FAIL] = 4090
	Total_core_cache_stats_breakdown[GLOBAL_ACC_W][SECTOR_MISS] = 5120
	Total_core_cache_stats_breakdown[GLOBAL_ACC_W][MSHR_HIT] = 0
	Total_core_cache_stats_breakdown[LOCAL_ACC_W][HIT] = 0
	Total_core_cache_stats_breakdown[LOCAL_ACC_W][HIT_RESERVED] = 0
	Total_core_cache_stats_breakdown[LOCAL_ACC_W][MISS] = 0
	Total_core_cache_stats_breakdown[LOCAL_ACC_W][RESERVATION_FAIL] = 0
	Total_core_cache_stats_breakdown[LOCAL_ACC_W][SECTOR_MISS] = 0
	Total_core_cache_stats_breakdown[LOCAL_ACC_W][MSHR_HIT] = 0
	Total_core_cache_stats_breakdown[L1_WRBK_ACC][HIT] = 0
	Total_core_cache_stats_breakdown[L1_WRBK_ACC][HIT_RESERVED] = 0
	Total_core_cache_stats_breakdown[L1_WRBK_ACC][MISS] = 0
	Total_core_cache_stats_breakdown[L1_WRBK_ACC][RESERVATION_FAIL] = 0
	Total_core_cache_stats_breakdown[L1_WRBK_ACC][SECTOR_MISS] = 0
	Total_core_cache_stats_breakdown[L1_WRBK_ACC][MSHR_HIT] = 0
	Total_core_cache_stats_breakdown[L2_WRBK_ACC][HIT] = 0
	Total_core_cache_stats_breakdown[L2_WRBK_ACC][HIT_RESERVED] = 0
	Total_core_cache_stats_breakdown[L2_WRBK_ACC][MISS] = 0
	Total_core_cache_stats_breakdown[L2_WRBK_ACC][RESERVATION_FAIL] = 0
	Total_core_cache_stats_breakdown[L2_WRBK_ACC][SECTOR_MISS] = 0
	Total_core_cache_stats_breakdown[L2_WRBK_ACC][MSHR_HIT] = 0
	Total_core_cache_stats_breakdown[INST_ACC_R][HIT] = 0
	Total_core_cache_stats_breakdown[INST_ACC_R][HIT_RESERVED] = 0
	Total_core_cache_stats_breakdown[INST_ACC_R][MISS] = 0
	Total_core_cache_stats_breakdown[INST_ACC_R][RESERVATION_FAIL] = 0
	Total_core_cache_stats_breakdown[INST_ACC_R][SECTOR_MISS] = 0
	Total_core_cache_stats_breakdown[INST_ACC_R][MSHR_HIT] = 0
	Total_core_cache_stats_breakdown[L1_WR_ALLOC_R][HIT] = 0
	Total_core_cache_stats_breakdown[L1_WR_ALLOC_R][HIT_RESERVED] = 0
	Total_core_cache_stats_breakdown[L1_WR_ALLOC_R][MISS] = 0
	Total_core_cache_stats_breakdown[L1_WR_ALLOC_R][RESERVATION_FAIL] = 0
	Total_core_cache_stats_breakdown[L1_WR_ALLOC_R][SECTOR_MISS] = 0
	Total_core_cache_stats_breakdown[L1_WR_ALLOC_R][MSHR_HIT] = 0
	Total_core_cache_stats_breakdown[L2_WR_ALLOC_R][HIT] = 0
	Total_core_cache_stats_breakdown[L2_WR_ALLOC_R][HIT_RESERVED] = 0
	Total_core_cache_stats_breakdown[L2_WR_ALLOC_R][MISS] = 0
	Total_core_cache_stats_breakdown[L2_WR_ALLOC_R][RESERVATION_FAIL] = 0
	Total_core_cache_stats_breakdown[L2_WR_ALLOC_R][SECTOR_MISS] = 0
	Total_core_cache_stats_breakdown[L2_WR_ALLOC_R][MSHR_HIT] = 0
	Total_core_cache_stats_breakdown[GLOBAL_ACC_R][TOTAL_ACCESS] = 6656
	Total_core_cache_stats_breakdown[GLOBAL_ACC_W][TOTAL_ACCESS] = 10240

Total_core_cache_fail_stats:
	Total_core_cache_fail_stats_breakdown[GLOBAL_ACC_R][MISS_QUEUE_FULL] = 75
	Total_core_cache_fail_stats_breakdown[GLOBAL_ACC_W][MISS_QUEUE_FULL] = 4090
ctas_completed 64, Shader 0 warp_id issue ditsribution:
warp_id:
0, 1, 2, 3, 4, 5, 6, 7, 
distro:
272, 267, 267, 267, 267, 267, 267, 272, 
gpgpu_n_tot_thrd_icount = 3901553
gpgpu_n_tot_w_icount = 138176
gpgpu_n_stall_shd_mem = 10010
gpgpu_n_mem_read_local = 0
gpgpu_n_mem_write_local = 0
gpgpu_n_mem_read_global = 4352
gpgpu_n_mem_write_global = 10240
gpgpu_n_mem_texture = 0
gpgpu_n_mem_const = 0
gpgpu_n_load_insn  = 90112
gpgpu_n_store_insn = 81920
gpgpu_n_shmem_insn = 204800
gpgpu_n_sstarr_insn = 0
gpgpu_n_tex_insn = 0
gpgpu_n_const_mem_insn = 0
gpgpu_n_param_mem_insn = 0
gpgpu_n_shmem_bkconflict = 0
gpgpu_n_cache_bkconflict = 0
gpgpu_n_intrawarp_mshr_merge = 0
gpgpu_n_cmem_portconflict = 0
gpgpu_stall_shd_mem[c_mem][resource_stall] = 0
gpgpu_stall_shd_mem[s_mem][bk_conf] = 2077
gpgpu_stall_shd_mem[gl_mem][resource_stall] = 7933
gpgpu_stall_shd_mem[gl_mem][coal_stall] = 0
gpgpu_stall_shd_mem[gl_mem][data_port_stall] = 0
gpu_reg_bank_conflict_stalls = 0
Warp Occupancy Distribution:
Stall:50108	W0_Idle:89308	W0_Scoreboard:381402	W1:1366	W2:3406	W3:210	W4:174	W5:146	W6:78	W7:64	W8:44	W9:24	W10:6	W11:2	W12:4	W13:2	W14:768	W15:704	W16:256	W17:0	W18:0	W19:1	W20:2	W21:1	W22:3	W23:12	W24:22	W25:32	W26:39	W27:73	W28:471	W29:361	W30:3783	W31:875	W32:115477
single_issue_nums: WS0:34704	WS1:34384	WS2:34384	WS3:34704	
dual_issue_nums: WS0:0	WS1:0	WS2:0	WS3:0	
traffic_breakdown_coretomem[GLOBAL_ACC_R] = 34816 {8:4352,}
traffic_breakdown_coretomem[GLOBAL_ACC_W] = 409600 {40:10240,}
traffic_breakdown_memtocore[GLOBAL_ACC_R] = 174080 {40:4352,}
traffic_breakdown_memtocore[GLOBAL_ACC_W] = 81920 {8:10240,}
maxmflatency = 408 
max_icnt2mem_latency = 104 
maxmrqlatency = 41 
max_icnt2sh_latency = 110 
averagemflatency = 245 
avg_icnt2mem_latency = 58 
avg_mrq_latency = 14 
avg_icnt2sh_latency = 20 
mrq_lat_table:126 	392 	169 	360 	943 	90 	0 	0 	0 	0 	0 	0 	0 	0 	0 	0 	0 	0 	0 	0 	0 	0 	0 	0 	0 	0 	0 	0 	0 	0 	0 	0 	
dq_lat_table:0 	0 	0 	0 	0 	0 	0 	0 	0 	0 	0 	0 	0 	0 	0 	0 	0 	0 	0 	0 	0 	0 	0 	0 	0 	0 	0 	0 	0 	0 	0 	0 	
mf_lat_table:0 	0 	0 	0 	0 	0 	0 	10543 	4049 	0 	0 	0 	0 	0 	0 	0 	0 	0 	0 	0 	0 	0 	0 	0 	0 	0 	0 	0 	0 	0 	0 	0 	
icnt2mem_lat_table:0 	0 	0 	0 	3801 	9121 	1670 	0 	0 	0 	0 	0 	0 	0 	0 	0 	0 	0 	0 	0 	0 	0 	0 	0 	
icnt2sh_lat_table:0 	5188 	2244 	1981 	2803 	2093 	283 	0 	0 	0 	0 	0 	0 	0 	0 	0 	0 	0 	0 	0 	0 	0 	0 	0 	
mf_lat_pw_table:0 	0 	0 	0 	0 	0 	0 	3 	2 	0 	0 	0 	0 	0 	0 	0 	0 	0 	0 	0 	0 	0 	0 	0 	0 	0 	0 	0 	0 	0 	0 	0 	
maximum concurrent accesses to same row:
dram[0]:         0         0         0         0         0         0         0         0         0         0         0         0         0         0         0         0 
dram[1]:         0         0         0         0         0         0         0         0         0         0         0         0         0         0         0         0 
dram[2]:         0         0         0         0         0         0         0         0         0         0         0         0         0         0         0         0 
dram[3]:         0         0         0         0         0         0         0         0         0         0         0         0         0         0         0         0 
dram[4]:         0         0         0         0         0         0         0         0         0         0         0         0         0         0         0         0 
dram[5]:         0         0         0         0         0         0         0         0         0         0         0         0         0         0         0         0 
dram[6]:         0         0         0         0         0         0         0         0         0         0         0         0         0         0         0         0 
dram[7]:         0         0         0         0         0         0         0         0         0         0         0         0         0         0         0         0 
dram[8]:         0         0         0         0         0         0         0         0         0         0         0         0         0         0         0         0 
dram[9]:         0         0         0         0         0         0         0         0         0         0         0         0         0         0         0         0 
dram[10]:         0         0         0         0         0         0         0         0         0         0         0         0         0         0         0         0 
dram[11]:         0         0         0         0         0         0         0         0         0         0         0         0         0         0         0         0 
dram[12]:         0         0         0         0         0         0         0         0         0         0         0         0         0         0         0         0 
dram[13]:         0         0         0         0         0         0         0         0         0         0         0         0         0         0         0         0 
dram[14]:         0         0         0         0         0         0         0         0         0         0         0         0         0         0         0         0 
dram[15]:         0         0         0         0         0         0         0         0         0         0         0         0         0         0         0         0 
dram[16]:         0         0         0         0         0         0         0         0         0         0         0         0         0         0         0         0 
dram[17]:         0         0         0         0         0         0         0         0         0         0         0         0         0         0         0         0 
dram[18]:         0         0         0         0         0         0         0         0         0         0         0         0         0         0         0         0 
dram[19]:         0         0         0         0         0         0         0         0         0         0         0         0         0         0         0         0 
dram[20]:         0         0         0         0         0         0         0         0         0         0         0         0         0         0         0         0 
dram[21]:         0         0         0         0         0         0         0         0         0         0         0         0         0         0         0         0 
dram[22]:         0         0         0         0         0         0         0         0         0         0         0         0         0         0         0         0 
dram[23]:         0         0         0         0         0         0         0         0         0         0         0         0         0         0         0         0 
dram[24]:         0         0         0         0         0         0         0         0         0         0         0         0         0         0         0         0 
dram[25]:         0         0         0         0         0         0         0         0         0         0         0         0         0         0         0         0 
dram[26]:         0         0         0         0         0         0         0         0         0         0         0         0         0         0         0         0 
dram[27]:         0         0         0         0         0         0         0         0         0         0         0         0         0         0         0         0 
dram[28]:         0         0         0         0         0         0         0         0         0         0         0         0         0         0         0         0 
dram[29]:         0         0         0         0         0         0         0         0         0         0         0         0         0         0         0         0 
dram[30]:         0         0         0         0         0         0         0         0         0         0         0         0         0         0         0         0 
dram[31]:         0         0         0         0         0         0         0         0         0         0         0         0         0         0         0         0 
maximum service time to same row:
dram[0]:      5358      5356         0         0         0         0         0         0         0         0         0         0         0         0         0         0 
dram[1]:      5358      5356         0         0         0         0         0         0         0         0         0         0         0         0         0         0 
dram[2]:      5370      5356         0         0         0         0         0         0         0         0         0         0         0         0         0      5358 
dram[3]:      5370      5356         0         0         0         0         0         0         0         0         0         0         0         0         0      5358 
dram[4]:      5797      5802         0         0         0         0         0         0         0         0         0         0         0         0         0         0 
dram[5]:      5799      5800         0         0         0         0         0         0         0         0         0         0         0         0         0         0 
dram[6]:      5797      5802         0         0         0         0         0         0         0         0         0         0         0         0         0         0 
dram[7]:      5799      5800         0         0         0         0         0         0         0         0         0         0         0         0         0         0 
dram[8]:      5795      5794         0         0         0         0         0         0         0         0         0         0         0         0         0         0 
dram[9]:      5790      5795         0         0         0         0         0         0         0         0         0         0         0         0         0         0 
dram[10]:      5792      5795         0         0         0         0         0         0         0         0         0         0         0         0         0         0 
dram[11]:      5790      5797         0         0         0         0         0         0         0         0         0         0         0         0         0         0 
dram[12]:      5785      5783         0         0         0         0         0         0         0         0         0         0         0         0         0         0 
dram[13]:      5780      5787         0         0         0         0         0         0         0         0         0         0         0         0         0         0 
dram[14]:      5782      5785         0         0         0         0         0         0         0         0         0         0         0         0         0         0 
dram[15]:      5782      5783         0         0         0         0         0         0         0         0         0         0         0         0         0         0 
dram[16]:      5783      5782         0         0         0         0         0         0         0         0         0         0         0         0         0         0 
dram[17]:      5788      5785         0         0         0         0         0         0         0         0         0         0         0         0         0         0 
dram[18]:      5787      5782         0         0         0         0         0         0         0         0         0         0         0         0         0         0 
dram[19]:      5783      5782         0         0         0         0         0         0         0         0         0         0         0         0         0         0 
dram[20]:      5780      5783         0         0         0         0         0         0         0         0         0         0         0         0         0         0 
dram[21]:      5778      5782         0         0         0         0         0         0         0         0         0         0         0         0         0         0 
dram[22]:      5778      5785         0         0         0         0         0         0         0         0         0         0         0         0         0         0 
dram[23]:      5780      5785         0         0         0         0         0         0         0         0         0         0         0         0         0         0 
dram[24]:      5368      5780         0         0         0         0         0         0         0         0         0         0         0         0         0         0 
dram[25]:      5368      5787         0         0         0         0         0         0         0         0         0         0         0         0         0         0 
dram[26]:      5777      5780         0         0         0         0         0         0         0         0         0         0         0         0         0         0 
dram[27]:      5778      5782         0         0         0         0         0         0         0         0         0         0         0         0         0         0 
dram[28]:      5377      5365         0         0         0         0         0         0         0         0         0         0         0         0         0         0 
dram[29]:      5377      5365         0         0         0         0         0         0         0         0         0         0         0         0         0         0 
dram[30]:      5378      5365         0         0         0         0         0         0         0         0         0         0         0         0         0         0 
dram[31]:      5378      5365         0         0         0         0         0         0         0         0         0         0         0         0         0         0 
average row accesses per activate:
dram[0]: 32.000000 32.000000      -nan      -nan      -nan      -nan      -nan      -nan      -nan      -nan      -nan      -nan      -nan      -nan      -nan      -nan 
dram[1]: 32.000000 32.000000      -nan      -nan      -nan      -nan      -nan      -nan      -nan      -nan      -nan      -nan      -nan      -nan      -nan      -nan 
dram[2]: 32.000000 32.000000      -nan      -nan      -nan      -nan      -nan      -nan      -nan      -nan      -nan      -nan      -nan      -nan      -nan  8.000000 
dram[3]: 32.000000 32.000000      -nan      -nan      -nan      -nan      -nan      -nan      -nan      -nan      -nan      -nan      -nan      -nan      -nan  8.000000 
dram[4]: 32.000000 32.000000      -nan      -nan      -nan      -nan      -nan      -nan      -nan      -nan      -nan      -nan      -nan      -nan      -nan      -nan 
dram[5]: 32.000000 32.000000      -nan      -nan      -nan      -nan      -nan      -nan      -nan      -nan      -nan      -nan      -nan      -nan      -nan      -nan 
dram[6]: 32.000000 32.000000      -nan      -nan      -nan      -nan      -nan      -nan      -nan      -nan      -nan      -nan      -nan      -nan      -nan      -nan 
dram[7]: 32.000000 32.000000      -nan      -nan      -nan      -nan      -nan      -nan      -nan      -nan      -nan      -nan      -nan      -nan      -nan      -nan 
dram[8]: 32.000000 32.000000      -nan      -nan      -nan      -nan      -nan      -nan      -nan      -nan      -nan      -nan      -nan      -nan      -nan      -nan 
dram[9]: 32.000000 32.000000      -nan      -nan      -nan      -nan      -nan      -nan      -nan      -nan      -nan      -nan      -nan      -nan      -nan      -nan 
dram[10]: 32.000000 32.000000      -nan      -nan      -nan      -nan      -nan      -nan      -nan      -nan      -nan      -nan      -nan      -nan      -nan      -nan 
dram[11]: 32.000000 32.000000      -nan      -nan      -nan      -nan      -nan      -nan      -nan      -nan      -nan      -nan      -nan      -nan      -nan      -nan 
dram[12]: 32.000000 32.000000      -nan      -nan      -nan      -nan      -nan      -nan      -nan      -nan      -nan      -nan      -nan      -nan      -nan      -nan 
dram[13]: 32.000000 32.000000      -nan      -nan      -nan      -nan      -nan      -nan      -nan      -nan      -nan      -nan      -nan      -nan      -nan      -nan 
dram[14]: 32.000000 32.000000      -nan      -nan      -nan      -nan      -nan      -nan      -nan      -nan      -nan      -nan      -nan      -nan      -nan      -nan 
dram[15]: 32.000000 32.000000      -nan      -nan      -nan      -nan      -nan      -nan      -nan      -nan      -nan      -nan      -nan      -nan      -nan      -nan 
dram[16]: 32.000000 32.000000      -nan      -nan      -nan      -nan      -nan      -nan      -nan      -nan      -nan      -nan      -nan      -nan      -nan      -nan 
dram[17]: 32.000000 32.000000      -nan      -nan      -nan      -nan      -nan      -nan      -nan      -nan      -nan      -nan      -nan      -nan      -nan      -nan 
dram[18]: 32.000000 32.000000      -nan      -nan      -nan      -nan      -nan      -nan      -nan      -nan      -nan      -nan      -nan      -nan      -nan      -nan 
dram[19]: 32.000000 32.000000      -nan      -nan      -nan      -nan      -nan      -nan      -nan      -nan      -nan      -nan      -nan      -nan      -nan      -nan 
dram[20]: 32.000000 32.000000      -nan      -nan      -nan      -nan      -nan      -nan      -nan      -nan      -nan      -nan      -nan      -nan      -nan      -nan 
dram[21]: 32.000000 32.000000      -nan      -nan      -nan      -nan      -nan      -nan      -nan      -nan      -nan      -nan      -nan      -nan      -nan      -nan 
dram[22]: 32.000000 32.000000      -nan      -nan      -nan      -nan      -nan      -nan      -nan      -nan      -nan      -nan      -nan      -nan      -nan      -nan 
dram[23]: 32.000000 32.000000      -nan      -nan      -nan      -nan      -nan      -nan      -nan      -nan      -nan      -nan      -nan      -nan      -nan      -nan 
dram[24]: 40.000000 32.000000      -nan      -nan      -nan      -nan      -nan      -nan      -nan      -nan      -nan      -nan      -nan      -nan      -nan      -nan 
dram[25]: 40.000000 32.000000      -nan      -nan      -nan      -nan      -nan      -nan      -nan      -nan      -nan      -nan      -nan      -nan      -nan      -nan 
dram[26]: 32.000000 32.000000      -nan      -nan      -nan      -nan      -nan      -nan      -nan      -nan      -nan      -nan      -nan      -nan      -nan      -nan 
dram[27]: 32.000000 32.000000      -nan      -nan      -nan      -nan      -nan      -nan      -nan      -nan      -nan      -nan      -nan      -nan      -nan      -nan 
dram[28]: 32.000000 32.000000      -nan      -nan      -nan      -nan      -nan      -nan      -nan      -nan      -nan      -nan      -nan      -nan      -nan      -nan 
dram[29]: 32.000000 32.000000      -nan      -nan      -nan      -nan      -nan      -nan      -nan      -nan      -nan      -nan      -nan      -nan      -nan      -nan 
dram[30]: 32.000000 32.000000      -nan      -nan      -nan      -nan      -nan      -nan      -nan      -nan      -nan      -nan      -nan      -nan      -nan      -nan 
dram[31]: 32.000000 32.000000      -nan      -nan      -nan      -nan      -nan      -nan      -nan      -nan      -nan      -nan      -nan      -nan      -nan      -nan 
average row locality = 2080/66 = 31.515152
number of total memory accesses made:
dram[0]:         0         0         0         0         0         0         0         0         0         0         0         0         0         0         0         0 
dram[1]:         0         0         0         0         0         0         0         0         0         0         0         0         0         0         0         0 
dram[2]:         0         0         0         0         0         0         0         0         0         0         0         0         0         0         0         0 
dram[3]:         0         0         0         0         0         0         0         0         0         0         0         0         0         0         0         0 
dram[4]:         0         0         0         0         0         0         0         0         0         0         0         0         0         0         0         0 
dram[5]:         0         0         0         0         0         0         0         0         0         0         0         0         0         0         0         0 
dram[6]:         0         0         0         0         0         0         0         0         0         0         0         0         0         0         0         0 
dram[7]:         0         0         0         0         0         0         0         0         0         0         0         0         0         0         0         0 
dram[8]:         0         0         0         0         0         0         0         0         0         0         0         0         0         0         0         0 
dram[9]:         0         0         0         0         0         0         0         0         0         0         0         0         0         0         0         0 
dram[10]:         0         0         0         0         0         0         0         0         0         0         0         0         0         0         0         0 
dram[11]:         0         0         0         0         0         0         0         0         0         0         0         0         0         0         0         0 
dram[12]:         0         0         0         0         0         0         0         0         0         0         0         0         0         0         0         0 
dram[13]:         0         0         0         0         0         0         0         0         0         0         0         0         0         0         0         0 
dram[14]:         0         0         0         0         0         0         0         0         0         0         0         0         0         0         0         0 
dram[15]:         0         0         0         0         0         0         0         0         0         0         0         0         0         0         0         0 
dram[16]:         0         0         0         0         0         0         0         0         0         0         0         0         0         0         0         0 
dram[17]:         0         0         0         0         0         0         0         0         0         0         0         0         0         0         0         0 
dram[18]:         0         0         0         0         0         0         0         0         0         0         0         0         0         0         0         0 
dram[19]:         0         0         0         0         0         0         0         0         0         0         0         0         0         0         0         0 
dram[20]:         0         0         0         0         0         0         0         0         0         0         0         0         0         0         0         0 
dram[21]:         0         0         0         0         0         0         0         0         0         0         0         0         0         0         0         0 
dram[22]:         0         0         0         0         0         0         0         0         0         0         0         0         0         0         0         0 
dram[23]:         0         0         0         0         0         0         0         0         0         0         0         0         0         0         0         0 
dram[24]:         0         0         0         0         0         0         0         0         0         0         0         0         0         0         0         0 
dram[25]:         0         0         0         0         0         0         0         0         0         0         0         0         0         0         0         0 
dram[26]:         0         0         0         0         0         0         0         0         0         0         0         0         0         0         0         0 
dram[27]:         0         0         0         0         0         0         0         0         0         0         0         0         0         0         0         0 
dram[28]:         0         0         0         0         0         0         0         0         0         0         0         0         0         0         0         0 
dram[29]:         0         0         0         0         0         0         0         0         0         0         0         0         0         0         0         0 
dram[30]:         0         0         0         0         0         0         0         0         0         0         0         0         0         0         0         0 
dram[31]:         0         0         0         0         0         0         0         0         0         0         0         0         0         0         0         0 
total accesses: 0
min_bank_accesses = 0!
min_chip_accesses = 0!
number of total read accesses:
dram[0]:        32        32         0         0         0         0         0         0         0         0         0         0         0         0         0         0 
dram[1]:        32        32         0         0         0         0         0         0         0         0         0         0         0         0         0         0 
dram[2]:        32        32         0         0         0         0         0         0         0         0         0         0         0         0         0         8 
dram[3]:        32        32         0         0         0         0         0         0         0         0         0         0         0         0         0         8 
dram[4]:        32        32         0         0         0         0         0         0         0         0         0         0         0         0         0         0 
dram[5]:        32        32         0         0         0         0         0         0         0         0         0         0         0         0         0         0 
dram[6]:        32        32         0         0         0         0         0         0         0         0         0         0         0         0         0         0 
dram[7]:        32        32         0         0         0         0         0         0         0         0         0         0         0         0         0         0 
dram[8]:        32        32         0         0         0         0         0         0         0         0         0         0         0         0         0         0 
dram[9]:        32        32         0         0         0         0         0         0         0         0         0         0         0         0         0         0 
dram[10]:        32        32         0         0         0         0         0         0         0         0         0         0         0         0         0         0 
dram[11]:        32        32         0         0         0         0         0         0         0         0         0         0         0         0         0         0 
dram[12]:        32        32         0         0         0         0         0         0         0         0         0         0         0         0         0         0 
dram[13]:        32        32         0         0         0         0         0         0         0         0         0         0         0         0         0         0 
dram[14]:        32        32         0         0         0         0         0         0         0         0         0         0         0         0         0         0 
dram[15]:        32        32         0         0         0         0         0         0         0         0         0         0         0         0         0         0 
dram[16]:        32        32         0         0         0         0         0         0         0         0         0         0         0         0         0         0 
dram[17]:        32        32         0         0         0         0         0         0         0         0         0         0         0         0         0         0 
dram[18]:        32        32         0         0         0         0         0         0         0         0         0         0         0         0         0         0 
dram[19]:        32        32         0         0         0         0         0         0         0         0         0         0         0         0         0         0 
dram[20]:        32        32         0         0         0         0         0         0         0         0         0         0         0         0         0         0 
dram[21]:        32        32         0         0         0         0         0         0         0         0         0         0         0         0         0         0 
dram[22]:        32        32         0         0         0         0         0         0         0         0         0         0         0         0         0         0 
dram[23]:        32        32         0         0         0         0         0         0         0         0         0         0         0         0         0         0 
dram[24]:        40        32         0         0         0         0         0         0         0         0         0         0         0         0         0         0 
dram[25]:        40        32         0         0         0         0         0         0         0         0         0         0         0         0         0         0 
dram[26]:        32        32         0         0         0         0         0         0         0         0         0         0         0         0         0         0 
dram[27]:        32        32         0         0         0         0         0         0         0         0         0         0         0         0         0         0 
dram[28]:        32        32         0         0         0         0         0         0         0         0         0         0         0         0         0         0 
dram[29]:        32        32         0         0         0         0         0         0         0         0         0         0         0         0         0         0 
dram[30]:        32        32         0         0         0         0         0         0         0         0         0         0         0         0         0         0 
dram[31]:        32        32         0         0         0         0         0         0         0         0         0         0         0         0         0         0 
total dram reads = 2080
min_bank_accesses = 0!
chip skew: 72/64 = 1.12
number of total write accesses:
[...]
WTRc_limit_alone = 0 
RTWc_limit_alone = 0 

Commands details: 
total_CMD = 17582 
n_nop = 17450 
Read = 128 
Write = 0 
L2_Alloc = 0 
L2_WB = 0 
n_act = 4 
n_pre = 0 
n_ref = 0 
n_req = 128 
total_req = 128 

Dual Bus Interface Util: 
issued_total_row = 4 
issued_total_col = 128 
Row_Bus_Util =  0.000228 
CoL_Bus_Util = 0.007280 
Either_Row_CoL_Bus_Util = 0.007508 
Issued_on_Two_Bus_Simul_Util = 0.000000 
issued_two_Eff = 0.000000 
queue_avg = 0.053123 


dram_util_bins: 0 0 0 0 0 0 0 0 0 0
dram_eff_bins: 0 0 0 0 0 0 0 0 0 0
mrqq: max=12 avg=0.0531225
Memory Partition 28: 
Cache L2_bank_056:
MSHR contents

Cache L2_bank_057:
MSHR contents

In Dram Latency Queue (total = 0): 
DRAM[28]: 16 bks, busW=16 BL=2 CL=12, tRRD=3 tCCD=1, tRCD=12 tRAS=28 tRP=12 tRC=40
n_cmd=17582 n_nop=17450 n_act=4 n_pre=0 n_ref_event=0 n_req=128 n_rd=128 n_rd_L2_A=0 n_write=0 n_wr_bk=0 bw_util=0.00728
n_activity=305 dram_eff=0.4197
bk0: 32a 17551i bk1: 32a 17540i bk2: 0a 17582i bk3: 0a 17582i bk4: 0a 17582i bk5: 0a 17582i bk6: 32a 17543i bk7: 32a 17544i bk8: 0a 17582i bk9: 0a 17582i bk10: 0a 17582i bk11: 0a 17582i bk12: 0a 17582i bk13: 0a 17582i bk14: 0a 17582i bk15: 0a 17582i 

------------------------------------------------------------------------

Row_Buffer_Locality = 0.968750
Row_Buffer_Locality_read = 0.968750
Row_Buffer_Locality_write = -nan
Bank_Level_Parallism = 1.510870
Bank_Level_Parallism_Col = 1.505494
Bank_Level_Parallism_Ready = 1.039062
write_to_read_ratio_blp_rw_average = 0.000000
GrpLevelPara = 1.505494 

BW Util details:
bwutil = 0.007280 
total_CMD = 17582 
util_bw = 128 
Wasted_Col = 56 
Wasted_Row = 0 
Idle = 17398 

BW Util Bottlenecks: 
RCDc_limit = 40 
RCDWRc_limit = 0 
WTRc_limit = 0 
RTWc_limit = 0 
CCDLc_limit = 32 
rwq = 0 
CCDLc_limit_alone = 32 
WTRc_limit_alone = 0 
RTWc_limit_alone = 0 

Commands details: 
total_CMD = 17582 
n_nop = 17450 
Read = 128 
Write = 0 
L2_Alloc = 0 
L2_WB = 0 
n_act = 4 
n_pre = 0 
n_ref = 0 
n_req = 128 
total_req = 128 

Dual Bus Interface Util: 
issued_total_row = 4 
issued_total_col = 128 
Row_Bus_Util =  0.000228 
CoL_Bus_Util = 0.007280 
Either_Row_CoL_Bus_Util = 0.007508 
Issued_on_Two_Bus_Simul_Util = 0.000000 
issued_two_Eff = 0.000000 
queue_avg = 0.068252 


dram_util_bins: 0 0 0 0 0 0 0 0 0 0
dram_eff_bins: 0 0 0 0 0 0 0 0 0 0
mrqq: max=15 avg=0.0682516
Memory Partition 29: 
Cache L2_bank_058:
MSHR contents

Cache L2_bank_059:
MSHR contents

In Dram Latency Queue (total = 0): 
DRAM[29]: 16 bks, busW=16 BL=2 CL=12, tRRD=3 tCCD=1, tRCD=12 tRAS=28 tRP=12 tRC=40
n_cmd=17582 n_nop=17450 n_act=4 n_pre=0 n_ref_event=0 n_req=128 n_rd=128 n_rd_L2_A=0 n_write=0 n_wr_bk=0 bw_util=0.00728
n_activity=303 dram_eff=0.4224
bk0: 32a 17549i bk1: 32a 17544i bk2: 0a 17582i bk3: 0a 17582i bk4: 0a 17582i bk5: 0a 17582i bk6: 32a 17543i bk7: 32a 17544i bk8: 0a 17582i bk9: 0a 17582i bk10: 0a 17582i bk11: 0a 17582i bk12: 0a 17582i bk13: 0a 17582i bk14: 0a 17582i bk15: 0a 17582i 

------------------------------------------------------------------------

Row_Buffer_Locality = 0.968750
Row_Buffer_Locality_read = 0.968750
Row_Buffer_Locality_write = -nan
Bank_Level_Parallism = 1.550562
Bank_Level_Parallism_Col = 1.545455
Bank_Level_Parallism_Ready = 1.031250
write_to_read_ratio_blp_rw_average = 0.000000
GrpLevelPara = 1.545455 

BW Util details:
bwutil = 0.007280 
total_CMD = 17582 
util_bw = 128 
Wasted_Col = 50 
Wasted_Row = 0 
Idle = 17404 

BW Util Bottlenecks: 
RCDc_limit = 42 
RCDWRc_limit = 0 
WTRc_limit = 0 
RTWc_limit = 0 
CCDLc_limit = 26 
rwq = 0 
CCDLc_limit_alone = 26 
WTRc_limit_alone = 0 
RTWc_limit_alone = 0 

Commands details: 
total_CMD = 17582 
n_nop = 17450 
Read = 128 
Write = 0 
L2_Alloc = 0 
L2_WB = 0 
n_act = 4 
n_pre = 0 
n_ref = 0 
n_req = 128 
total_req = 128 

Dual Bus Interface Util: 
issued_total_row = 4 
issued_total_col = 128 
Row_Bus_Util =  0.000228 
CoL_Bus_Util = 0.007280 
Either_Row_CoL_Bus_Util = 0.007508 
Issued_on_Two_Bus_Simul_Util = 0.000000 
issued_two_Eff = 0.000000 
queue_avg = 0.053179 


dram_util_bins: 0 0 0 0 0 0 0 0 0 0
dram_eff_bins: 0 0 0 0 0 0 0 0 0 0
mrqq: max=14 avg=0.0531794
Memory Partition 30: 
Cache L2_bank_060:
MSHR contents

Cache L2_bank_061:
MSHR contents

In Dram Latency Queue (total = 0): 
DRAM[30]: 16 bks, busW=16 BL=2 CL=12, tRRD=3 tCCD=1, tRCD=12 tRAS=28 tRP=12 tRC=40
n_cmd=17582 n_nop=17450 n_act=4 n_pre=0 n_ref_event=0 n_req=128 n_rd=128 n_rd_L2_A=0 n_write=0 n_wr_bk=0 bw_util=0.00728
n_activity=311 dram_eff=0.4116
bk0: 32a 17541i bk1: 32a 17542i bk2: 0a 17582i bk3: 0a 17582i bk4: 0a 17582i bk5: 0a 17582i bk6: 32a 17543i bk7: 32a 17543i bk8: 0a 17582i bk9: 0a 17582i bk10: 0a 17582i bk11: 0a 17582i bk12: 0a 17582i bk13: 0a 17582i bk14: 0a 17582i bk15: 0a 17582i 

------------------------------------------------------------------------

Row_Buffer_Locality = 0.968750
Row_Buffer_Locality_read = 0.968750
Row_Buffer_Locality_write = -nan
Bank_Level_Parallism = 1.471795
Bank_Level_Parallism_Col = 1.466321
Bank_Level_Parallism_Ready = 1.046875
write_to_read_ratio_blp_rw_average = 0.000000
GrpLevelPara = 1.466321 

BW Util details:
bwutil = 0.007280 
total_CMD = 17582 
util_bw = 128 
Wasted_Col = 67 
Wasted_Row = 0 
Idle = 17387 

BW Util Bottlenecks: 
RCDc_limit = 39 
RCDWRc_limit = 0 
WTRc_limit = 0 
RTWc_limit = 0 
CCDLc_limit = 43 
rwq = 0 
CCDLc_limit_alone = 43 
WTRc_limit_alone = 0 
RTWc_limit_alone = 0 

Commands details: 
total_CMD = 17582 
n_nop = 17450 
Read = 128 
Write = 0 
L2_Alloc = 0 
L2_WB = 0 
n_act = 4 
n_pre = 0 
n_ref = 0 
n_req = 128 
total_req = 128 

Dual Bus Interface Util: 
issued_total_row = 4 
issued_total_col = 128 
Row_Bus_Util =  0.000228 
CoL_Bus_Util = 0.007280 
Either_Row_CoL_Bus_Util = 0.007508 
Issued_on_Two_Bus_Simul_Util = 0.000000 
issued_two_Eff = 0.000000 
queue_avg = 0.065863 


dram_util_bins: 0 0 0 0 0 0 0 0 0 0
dram_eff_bins: 0 0 0 0 0 0 0 0 0 0
mrqq: max=15 avg=0.0658628
Memory Partition 31: 
Cache L2_bank_062:
MSHR contents

Cache L2_bank_063:
MSHR contents

In Dram Latency Queue (total = 0): 
DRAM[31]: 16 bks, busW=16 BL=2 CL=12, tRRD=3 tCCD=1, tRCD=12 tRAS=28 tRP=12 tRC=40
n_cmd=17582 n_nop=17450 n_act=4 n_pre=0 n_ref_event=0 n_req=128 n_rd=128 n_rd_L2_A=0 n_write=0 n_wr_bk=0 bw_util=0.00728
n_activity=311 dram_eff=0.4116
bk0: 32a 17543i bk1: 32a 17544i bk2: 0a 17582i bk3: 0a 17582i bk4: 0a 17582i bk5: 0a 17582i bk6: 32a 17545i bk7: 32a 17544i bk8: 0a 17582i bk9: 0a 17582i bk10: 0a 17582i bk11: 0a 17582i bk12: 0a 17582i bk13: 0a 17582i bk14: 0a 17582i bk15: 0a 17582i 

------------------------------------------------------------------------

Row_Buffer_Locality = 0.968750
Row_Buffer_Locality_read = 0.968750
Row_Buffer_Locality_write = -nan
Bank_Level_Parallism = 1.505376
Bank_Level_Parallism_Col = 1.500000
Bank_Level_Parallism_Ready = 1.039062
write_to_read_ratio_blp_rw_average = 0.000000
GrpLevelPara = 1.500000 

BW Util details:
bwutil = 0.007280 
total_CMD = 17582 
util_bw = 128 
Wasted_Col = 58 
Wasted_Row = 0 
Idle = 17396 

BW Util Bottlenecks: 
RCDc_limit = 41 
RCDWRc_limit = 0 
WTRc_limit = 0 
RTWc_limit = 0 
CCDLc_limit = 34 
rwq = 0 
CCDLc_limit_alone = 34 
WTRc_limit_alone = 0 
RTWc_limit_alone = 0 

Commands details: 
total_CMD = 17582 
n_nop = 17450 
Read = 128 
Write = 0 
L2_Alloc = 0 
L2_WB = 0 
n_act = 4 
n_pre = 0 
n_ref = 0 
n_req = 128 
total_req = 128 

Dual Bus Interface Util: 
issued_total_row = 4 
issued_total_col = 128 
Row_Bus_Util =  0.000228 
CoL_Bus_Util = 0.007280 
Either_Row_CoL_Bus_Util = 0.007508 
Issued_on_Two_Bus_Simul_Util = 0.000000 
issued_two_Eff = 0.000000 
queue_avg = 0.049369 


dram_util_bins: 0 0 0 0 0 0 0 0 0 0
dram_eff_bins: 0 0 0 0 0 0 0 0 0 0
mrqq: max=15 avg=0.0493687

========= L2 cache stats =========
L2_cache_bank[0]: Access = 944, Miss = 384, Miss_rate = 0.407, Pending_hits = 0, Reservation_fails = 0
L2_cache_bank[1]: Access = 944, Miss = 384, Miss_rate = 0.407, Pending_hits = 0, Reservation_fails = 0
L2_cache_bank[2]: Access = 944, Miss = 384, Miss_rate = 0.407, Pending_hits = 0, Reservation_fails = 0
L2_cache_bank[3]: Access = 944, Miss = 384, Miss_rate = 0.407, Pending_hits = 0, Reservation_fails = 0
L2_cache_bank[4]: Access = 944, Miss = 384, Miss_rate = 0.407, Pending_hits = 0, Reservation_fails = 0
L2_cache_bank[5]: Access = 945, Miss = 392, Miss_rate = 0.415, Pending_hits = 0, Reservation_fails = 0
L2_cache_bank[6]: Access = 944, Miss = 384, Miss_rate = 0.407, Pending_hits = 0, Reservation_fails = 0
L2_cache_bank[7]: Access = 943, Miss = 392, Miss_rate = 0.416, Pending_hits = 0, Reservation_fails = 0
L2_cache_bank[8]: Access = 928, Miss = 384, Miss_rate = 0.414, Pending_hits = 0, Reservation_fails = 0
L2_cache_bank[9]: Access = 928, Miss = 384, Miss_rate = 0.414, Pending_hits = 0, Reservation_fails = 0
L2_cache_bank[10]: Access = 928, Miss = 384, Miss_rate = 0.414, Pending_hits = 0, Reservation_fails = 0
L2_cache_bank[11]: Access = 928, Miss = 384, Miss_rate = 0.414, Pending_hits = 0, Reservation_fails = 0
L2_cache_bank[12]: Access = 928, Miss = 384, Miss_rate = 0.414, Pending_hits = 0, Reservation_fails = 0
L2_cache_bank[13]: Access = 928, Miss = 384, Miss_rate = 0.414, Pending_hits = 0, Reservation_fails = 0
L2_cache_bank[14]: Access = 928, Miss = 384, Miss_rate = 0.414, Pending_hits = 0, Reservation_fails = 0
L2_cache_bank[15]: Access = 928, Miss = 384, Miss_rate = 0.414, Pending_hits = 0, Reservation_fails = 0
L2_cache_bank[16]: Access = 944, Miss = 384, Miss_rate = 0.407, Pending_hits = 0, Reservation_fails = 0
L2_cache_bank[17]: Access = 944, Miss = 384, Miss_rate = 0.407, Pending_hits = 0, Reservation_fails = 0
L2_cache_bank[18]: Access = 944, Miss = 384, Miss_rate = 0.407, Pending_hits = 0, Reservation_fails = 0
L2_cache_bank[19]: Access = 944, Miss = 384, Miss_rate = 0.407, Pending_hits = 0, Reservation_fails = 0
L2_cache_bank[20]: Access = 944, Miss = 384, Miss_rate = 0.407, Pending_hits = 0, Reservation_fails = 0
L2_cache_bank[21]: Access = 935, Miss = 384, Miss_rate = 0.411, Pending_hits = 0, Reservation_fails = 0
L2_cache_bank[22]: Access = 944, Miss = 384, Miss_rate = 0.407, Pending_hits = 0, Reservation_fails = 0
L2_cache_bank[23]: Access = 936, Miss = 384, Miss_rate = 0.410, Pending_hits = 0, Reservation_fails = 0
L2_cache_bank[24]: Access = 944, Miss = 384, Miss_rate = 0.407, Pending_hits = 0, Reservation_fails = 0
L2_cache_bank[25]: Access = 944, Miss = 384, Miss_rate = 0.407, Pending_hits = 0, Reservation_fails = 0
L2_cache_bank[26]: Access = 944, Miss = 384, Miss_rate = 0.407, Pending_hits = 0, Reservation_fails = 0
L2_cache_bank[27]: Access = 944, Miss = 384, Miss_rate = 0.407, Pending_hits = 0, Reservation_fails = 0
L2_cache_bank[28]: Access = 952, Miss = 384, Miss_rate = 0.403, Pending_hits = 0, Reservation_fails = 0
L2_cache_bank[29]: Access = 944, Miss = 384, Miss_rate = 0.407, Pending_hits = 0, Reservation_fails = 0
L2_cache_bank[30]: Access = 953, Miss = 384, Miss_rate = 0.403, Pending_hits = 0, Reservation_fails = 0
L2_cache_bank[31]: Access = 944, Miss = 384, Miss_rate = 0.407, Pending_hits = 0, Reservation_fails = 0
L2_cache_bank[32]: Access = 928, Miss = 384, Miss_rate = 0.414, Pending_hits = 0, Reservation_fails = 0
L2_cache_bank[33]: Access = 928, Miss = 384, Miss_rate = 0.414, Pending_hits = 0, Reservation_fails = 0
L2_cache_bank[34]: Access = 928, Miss = 384, Miss_rate = 0.414, Pending_hits = 0, Reservation_fails = 0
L2_cache_bank[35]: Access = 928, Miss = 384, Miss_rate = 0.414, Pending_hits = 0, Reservation_fails = 0
L2_cache_bank[36]: Access = 928, Miss = 384, Miss_rate = 0.414, Pending_hits = 0, Reservation_fails = 0
L2_cache_bank[37]: Access = 937, Miss = 384, Miss_rate = 0.410, Pending_hits = 0, Reservation_fails = 0
L2_cache_bank[38]: Access = 928, Miss = 384, Miss_rate = 0.414, Pending_hits = 0, Reservation_fails = 0
L2_cache_bank[39]: Access = 936, Miss = 384, Miss_rate = 0.410, Pending_hits = 0, Reservation_fails = 0
L2_cache_bank[40]: Access = 944, Miss = 384, Miss_rate = 0.407, Pending_hits = 0, Reservation_fails = 0
L2_cache_bank[41]: Access = 944, Miss = 384, Miss_rate = 0.407, Pending_hits = 0, Reservation_fails = 0
L2_cache_bank[42]: Access = 944, Miss = 384, Miss_rate = 0.407, Pending_hits = 0, Reservation_fails = 0
L2_cache_bank[43]: Access = 944, Miss = 384, Miss_rate = 0.407, Pending_hits = 0, Reservation_fails = 0
L2_cache_bank[44]: Access = 944, Miss = 384, Miss_rate = 0.407, Pending_hits = 0, Reservation_fails = 0
L2_cache_bank[45]: Access = 936, Miss = 384, Miss_rate = 0.410, Pending_hits = 0, Reservation_fails = 0
L2_cache_bank[46]: Access = 944, Miss = 384, Miss_rate = 0.407, Pending_hits = 0, Reservation_fails = 0
L2_cache_bank[47]: Access = 935, Miss = 384, Miss_rate = 0.411, Pending_hits = 0, Reservation_fails = 0
L2_cache_bank[48]: Access = 944, Miss = 384, Miss_rate = 0.407, Pending_hits = 0, Reservation_fails = 0
L2_cache_bank[49]: Access = 944, Miss = 384, Miss_rate = 0.407, Pending_hits = 0, Reservation_fails = 0
L2_cache_bank[50]: Access = 944, Miss = 384, Miss_rate = 0.407, Pending_hits = 0, Reservation_fails = 0
L2_cache_bank[51]: Access = 944, Miss = 384, Miss_rate = 0.407, Pending_hits = 0, Reservation_fails = 0
L2_cache_bank[52]: Access = 944, Miss = 384, Miss_rate = 0.407, Pending_hits = 0, Reservation_fails = 0
L2_cache_bank[53]: Access = 944, Miss = 384, Miss_rate = 0.407, Pending_hits = 0, Reservation_fails = 0
L2_cache_bank[54]: Access = 944, Miss = 384, Miss_rate = 0.407, Pending_hits = 0, Reservation_fails = 0
L2_cache_bank[55]: Access = 944, Miss = 384, Miss_rate = 0.407, Pending_hits = 0, Reservation_fails = 0
L2_cache_bank[56]: Access = 944, Miss = 384, Miss_rate = 0.407, Pending_hits = 0, Reservation_fails = 0
L2_cache_bank[57]: Access = 952, Miss = 384, Miss_rate = 0.403, Pending_hits = 0, Reservation_fails = 0
L2_cache_bank[58]: Access = 944, Miss = 384, Miss_rate = 0.407, Pending_hits = 0, Reservation_fails = 0
L2_cache_bank[59]: Access = 953, Miss = 384, Miss_rate = 0.403, Pending_hits = 0, Reservation_fails = 0
L2_cache_bank[60]: Access = 944, Miss = 384, Miss_rate = 0.407, Pending_hits = 0, Reservation_fails = 0
L2_cache_bank[61]: Access = 935, Miss = 384, Miss_rate = 0.411, Pending_hits = 0, Reservation_fails = 0
L2_cache_bank[62]: Access = 944, Miss = 384, Miss_rate = 0.407, Pending_hits = 0, Reservation_fails = 0
L2_cache_bank[63]: Access = 936, Miss = 384, Miss_rate = 0.410, Pending_hits = 0, Reservation_fails = 0
L2_total_cache_accesses = 60160
L2_total_cache_misses = 24592
L2_total_cache_miss_rate = 0.4088
L2_total_cache_pending_hits = 0
L2_total_cache_reservation_fails = 0
L2_total_cache_breakdown:
	L2_cache_stats_breakdown[GLOBAL_ACC_R][HIT] = 31440
	L2_cache_stats_breakdown[GLOBAL_ACC_R][HIT_RESERVED] = 0
	L2_cache_stats_breakdown[GLOBAL_ACC_R][MISS] = 1036
	L2_cache_stats_breakdown[GLOBAL_ACC_R][RESERVATION_FAIL] = 0
	L2_cache_stats_breakdown[GLOBAL_ACC_R][SECTOR_MISS] = 3108
	L2_cache_stats_breakdown[GLOBAL_ACC_R][MSHR_HIT] = 0
	L2_cache_stats_breakdown[LOCAL_ACC_R][HIT] = 0
	L2_cache_stats_breakdown[LOCAL_ACC_R][HIT_RESERVED] = 0
	L2_cache_stats_breakdown[LOCAL_ACC_R][MISS] = 0
	L2_cache_stats_breakdown[LOCAL_ACC_R][RESERVATION_FAIL] = 0
	L2_cache_stats_breakdown[LOCAL_ACC_R][SECTOR_MISS] = 0
	L2_cache_stats_breakdown[LOCAL_ACC_R][MSHR_HIT] = 0
	L2_cache_stats_breakdown[CONST_ACC_R][HIT] = 0
	L2_cache_stats_breakdown[CONST_ACC_R][HIT_RESERVED] = 0
	L2_cache_stats_breakdown[CONST_ACC_R][MISS] = 0
	L2_cache_stats_breakdown[CONST_ACC_R][RESERVATION_FAIL] = 0
	L2_cache_stats_breakdown[CONST_ACC_R][SECTOR_MISS] = 0
	L2_cache_stats_breakdown[CONST_ACC_R][MSHR_HIT] = 0
	L2_cache_stats_breakdown[TEXTURE_ACC_R][HIT] = 0
	L2_cache_stats_breakdown[TEXTURE_ACC_R][HIT_RESERVED] = 0
	L2_cache_stats_breakdown[TEXTURE_ACC_R][MISS] = 0
	L2_cache_stats_breakdown[TEXTURE_ACC_R][RESERVATION_FAIL] = 0
	L2_cache_stats_breakdown[TEXTURE_ACC_R][SECTOR_MISS] = 0
	L2_cache_stats_breakdown[TEXTURE_ACC_R][MSHR_HIT] = 0
	L2_cache_stats_breakdown[GLOBAL_ACC_W][HIT] = 4128
	L2_cache_stats_breakdown[GLOBAL_ACC_W][HIT_RESERVED] = 0
	L2_cache_stats_breakdown[GLOBAL_ACC_W][MISS] = 5112
	L2_cache_stats_breakdown[GLOBAL_ACC_W][RESERVATION_FAIL] = 0
	L2_cache_stats_breakdown[GLOBAL_ACC_W][SECTOR_MISS] = 15336
	L2_cache_stats_breakdown[GLOBAL_ACC_W][MSHR_HIT] = 0
	L2_cache_stats_breakdown[LOCAL_ACC_W][HIT] = 0
	L2_cache_stats_breakdown[LOCAL_ACC_W][HIT_RESERVED] = 0
	L2_cache_stats_breakdown[LOCAL_ACC_W][MISS] = 0
	L2_cache_stats_breakdown[LOCAL_ACC_W][RESERVATION_FAIL] = 0
	L2_cache_stats_breakdown[LOCAL_ACC_W][SECTOR_MISS] = 0
	L2_cache_stats_breakdown[LOCAL_ACC_W][MSHR_HIT] = 0
	L2_cache_stats_breakdown[L1_WRBK_ACC][HIT] = 0
	L2_cache_stats_breakdown[L1_WRBK_ACC][HIT_RESERVED] = 0
	L2_cache_stats_breakdown[L1_WRBK_ACC][MISS] = 0
	L2_cache_stats_breakdown[L1_WRBK_ACC][RESERVATION_FAIL] = 0
	L2_cache_stats_breakdown[L1_WRBK_ACC][SECTOR_MISS] = 0
	L2_cache_stats_breakdown[L1_WRBK_ACC][MSHR_HIT] = 0
	L2_cache_stats_breakdown[L2_WRBK_ACC][HIT] = 0
	L2_cache_stats_breakdown[L2_WRBK_ACC][HIT_RESERVED] = 0
	L2_cache_stats_breakdown[L2_WRBK_ACC][MISS] = 0
	L2_cache_stats_breakdown[L2_WRBK_ACC][RESERVATION_FAIL] = 0
	L2_cache_stats_breakdown[L2_WRBK_ACC][SECTOR_MISS] = 0
	L2_cache_stats_breakdown[L2_WRBK_ACC][MSHR_HIT] = 0
	L2_cache_stats_breakdown[INST_ACC_R][HIT] = 0
	L2_cache_stats_breakdown[INST_ACC_R][HIT_RESERVED] = 0
	L2_cache_stats_breakdown[INST_ACC_R][MISS] = 0
	L2_cache_stats_breakdown[INST_ACC_R][RESERVATION_FAIL] = 0
	L2_cache_stats_breakdown[INST_ACC_R][SECTOR_MISS] = 0
	L2_cache_stats_breakdown[INST_ACC_R][MSHR_HIT] = 0
	L2_cache_stats_breakdown[L1_WR_ALLOC_R][HIT] = 0
	L2_cache_stats_breakdown[L1_WR_ALLOC_R][HIT_RESERVED] = 0
	L2_cache_stats_breakdown[L1_WR_ALLOC_R][MISS] = 0
	L2_cache_stats_breakdown[L1_WR_ALLOC_R][RESERVATION_FAIL] = 0
	L2_cache_stats_breakdown[L1_WR_ALLOC_R][SECTOR_MISS] = 0
	L2_cache_stats_breakdown[L1_WR_ALLOC_R][MSHR_HIT] = 0
	L2_cache_stats_breakdown[L2_WR_ALLOC_R][HIT] = 0
	L2_cache_stats_breakdown[L2_WR_ALLOC_R][HIT_RESERVED] = 0
	L2_cache_stats_breakdown[L2_WR_ALLOC_R][MISS] = 0
	L2_cache_stats_breakdown[L2_WR_ALLOC_R][RESERVATION_FAIL] = 0
	L2_cache_stats_breakdown[L2_WR_ALLOC_R][SECTOR_MISS] = 0
	L2_cache_stats_breakdown[L2_WR_ALLOC_R][MSHR_HIT] = 0
	L2_cache_stats_breakdown[GLOBAL_ACC_R][TOTAL_ACCESS] = 35584
	L2_cache_stats_breakdown[GLOBAL_ACC_W][TOTAL_ACCESS] = 24576
L2_total_cache_reservation_fail_breakdown:
L2_cache_data_port_util = 0.019
L2_cache_fill_port_util = 0.002

icnt_total_pkts_mem_to_simt=60160
icnt_total_pkts_simt_to_mem=60160
LD_mem_lat_dist  0 0 0 0 0 0 0 0 0 0 0 0 0 0 0 0 0 0 0 0 0 0 0 0 0 0 0
ST_mem_lat_dist  0 0 0 0 0 0 0 0 0 0 0 0 0 0 0 0 0 0 0 0 0 0 0 0 0 0 0
----------------------------Interconnect-DETAILS--------------------------------
Req_Network_injected_packets_num = 60160
Req_Network_cycles = 29931
Req_Network_injected_packets_per_cycle =       2.0100 
Req_Network_conflicts_per_cycle =       0.6639
Req_Network_conflicts_per_cycle_util =       4.1658
Req_Bank_Level_Parallism =      12.6122
Req_Network_in_buffer_full_per_cycle =       0.0000
Req_Network_in_buffer_avg_util =       0.1956
Req_Network_out_buffer_full_per_cycle =       0.0000
Req_Network_out_buffer_avg_util =       0.0314

Reply_Network_injected_packets_num = 60160
Reply_Network_cycles = 29931
Reply_Network_injected_packets_per_cycle =        2.0100
Reply_Network_conflicts_per_cycle =        2.4508
Reply_Network_conflicts_per_cycle_util =      14.2883
Reply_Bank_Level_Parallism =      11.7180
Reply_Network_in_buffer_full_per_cycle =       0.0000
Reply_Network_in_buffer_avg_util =       0.3396
Reply_Network_out_buffer_full_per_cycle =       0.0000
Reply_Network_out_buffer_avg_util =       0.0251
----------------------------END-of-Interconnect-DETAILS-------------------------


gpgpu_simulation_time = 0 days, 0 hrs, 0 min, 14 sec (14 sec)
gpgpu_simulation_rate = 777732 (inst/sec)
gpgpu_simulation_rate = 2137 (cycle/sec)
gpgpu_silicon_slowdown = 677117x
GPGPU-Sim: *** simulation thread exiting ***
GPGPU-Sim: *** exit detected ***
